 ****** HSPICE -- C-2009.09 32-BIT (Aug 24 2009) winnt ******                   
  Copyright (C) 2009 Synopsys, Inc. All Rights Reserved.                        
  Unpublished-rights reserved under US copyright laws.
  This program is protected by law and is subject to the 
  terms and conditions of the license agreement from Synopsys.
  Use of this program is your acceptance to be bound by the 
  license agreement. HSPICE is the trademark of Synopsys, Inc.
  Input File: E:\microstrip_modeling\Modeling_of_CPW_v11(2-D-SVDfit)\hspice_proj
  lic:  
  lic: FLEXlm: v8.5b 
  lic: USER:   MY                   HOSTNAME: MY-PC 
  lic: HOSTID: "22104182b4cb b0104182b4cb b083fe554343 b0104182b4cc 005056c00001
  
  lic: Using FLEXlm license file: 
  lic: 27000@localhost 
  lic: Checkout 1 hspice 
  lic: License/Maintenance for hspice will expire on 31-dec-2028/2008.120 
  lic: FLOATING license(s) on SERVER localhost 
  lic:   
 Init: read install configuration file: D:\synopsys\Hspice_C-2009.09\meta.cfg
1****** HSPICE -- C-2009.09 32-BIT (Aug 24 2009) winnt ******                   
 ******  
 .title test_cpw_sparam

  ******  circuit name directory
 circuit number to circuit name directory
   number circuitname                     definition         multiplier
        0 main circuit
        1 x1.                             cpw                1.00 



 **** List of Port Elements
Port Number     Mode        Zo       DC bias
     1         single    ( 50.0    ,0.0)    0.00    
     2         single    ( 50.0    ,0.0)    0.00    
 
      
 *****************************************************************
 ******  option summary
 ******
 runlvl  = 6         bypass  = 2         
  Opening plot unit= 79
 file=.\hspice_project\test_cpw\test_cpw_Sparam.pa0                            




 **** List of Port Elements
Port Number     Mode        Zo       DC bias
     1         single    ( 50.0    ,0.0)    0.00    
     2         single    ( 50.0    ,0.0)    0.00    
1****** HSPICE -- C-2009.09 32-BIT (Aug 24 2009) winnt ******                   
 ******  
 .title test_cpw_sparam

  ******  operating point information tnom=  25.000 temp=  27.000 *****
 ***** operating point status is all       simulation time is     0.     
    node    =voltage      node    =voltage      node    =voltage

 +0:a       =   0.      0:b       =   0.      1:np011   =   0.     
 +1:np012   =   0.      1:np013   =   0.      1:np021   =   0.     
 +1:np022   =   0.      1:np023   =   0.      1:np031   =   0.     
 +1:np032   =   0.      1:np033   =   0.      1:np041   =   0.     
 +1:np042   =   0.      1:np043   =   0.      1:np051   =   0.     
 +1:np052   =   0.      1:np053   =   0.      1:np061   =   0.     
 +1:np062   =   0.      1:np063   =   0.      1:np071   =   0.     
 +1:np072   =   0.      1:np073   =   0.      1:np081   =   0.     
 +1:np082   =   0.      1:np083   =   0.      1:np091   =   0.     
 +1:np092   =   0.      1:np093   =   0.      1:np101   =   0.     
 +1:np102   =   0.      1:np103   =   0.      1:np111   =   0.     
 +1:np112   =   0.      1:np113   =   0.      1:ns011   =   0.     
 +1:ns012   =   0.      1:ns013   =   0.      1:ns014   =   0.     
 +1:ns015   =   0.      1:ns021   =   0.      1:ns022   =   0.     
 +1:ns023   =   0.      1:ns024   =   0.      1:ns025   =   0.     
 +1:ns031   =   0.      1:ns032   =   0.      1:ns033   =   0.     
 +1:ns034   =   0.      1:ns035   =   0.      1:ns041   =   0.     
 +1:ns042   =   0.      1:ns043   =   0.      1:ns044   =   0.     
 +1:ns045   =   0.      1:ns051   =   0.      1:ns052   =   0.     
 +1:ns053   =   0.      1:ns054   =   0.      1:ns055   =   0.     
 +1:ns061   =   0.      1:ns062   =   0.      1:ns063   =   0.     
 +1:ns064   =   0.      1:ns065   =   0.      1:ns071   =   0.     
 +1:ns072   =   0.      1:ns073   =   0.      1:ns074   =   0.     
 +1:ns075   =   0.      1:ns081   =   0.      1:ns082   =   0.     
 +1:ns083   =   0.      1:ns084   =   0.      1:ns085   =   0.     
 +1:ns091   =   0.      1:ns092   =   0.      1:ns093   =   0.     
 +1:ns094   =   0.      1:ns095   =   0.      1:ns101   =   0.     
 +1:ns102   =   0.      1:ns103   =   0.      1:ns104   =   0.     


 ****  port elements

 subckt                        
 element  0:p1       0:p2      
  volts      0.         0.     
  current    0.         0.     
  power      0.         0.     


     total port element power dissipation=    0.            watts

 **** resistors

 subckt   x1         x1         x1         x1         x1         x1        
 element  1:rg010    1:rg011    1:rg012    1:rg013    1:r010     1:r011    
  r value   17.5855x   49.4943x  357.5944k  247.6027k   42.0362m    3.7170m
  v drop     0.         0.         0.         0.         0.         0.     
  current    0.         0.         0.         0.         0.         0.     
  power      0.         0.         0.         0.         0.         0.     

 subckt   x1         x1         x1         x1         x1         x1        
 element  1:r012     1:r013     1:rg020    1:rg021    1:rg022    1:rg023   
  r value   97.2909m  140.4645m    8.7927x   24.7472x  178.7972k  123.8014k
  v drop     0.         0.         0.         0.         0.         0.     
  current    0.         0.         0.         0.         0.         0.     
  power      0.         0.         0.         0.         0.         0.     

 subckt   x1         x1         x1         x1         x1         x1        
 element  1:r020     1:r021     1:r022     1:r023     1:rg030    1:rg031   
  r value   42.0362m    3.7170m   97.2909m  140.4645m    8.7927x   24.7472x
  v drop     0.         0.         0.         0.         0.         0.     
  current    0.         0.         0.         0.         0.         0.     
  power      0.         0.         0.         0.         0.         0.     

 subckt   x1         x1         x1         x1         x1         x1        
 element  1:rg032    1:rg033    1:r030     1:r031     1:r032     1:r033    
  r value  178.7972k  123.8014k   42.0362m    3.7170m   97.2909m  140.4645m
  v drop     0.         0.         0.         0.         0.         0.     
  current    0.         0.         0.         0.         0.         0.     
  power      0.         0.         0.         0.         0.         0.     

 subckt   x1         x1         x1         x1         x1         x1        
 element  1:rg040    1:rg041    1:rg042    1:rg043    1:r040     1:r041    
  r value    8.7927x   24.7472x  178.7972k  123.8014k   42.0362m    3.7170m
  v drop     0.         0.         0.         0.         0.         0.     
  current    0.         0.         0.         0.         0.         0.     
  power      0.         0.         0.         0.         0.         0.     

 subckt   x1         x1         x1         x1         x1         x1        
 element  1:r042     1:r043     1:rg050    1:rg051    1:rg052    1:rg053   
  r value   97.2909m  140.4645m    8.7927x   24.7472x  178.7972k  123.8014k
  v drop     0.         0.         0.         0.         0.         0.     
  current    0.         0.         0.         0.         0.         0.     
  power      0.         0.         0.         0.         0.         0.     

 subckt   x1         x1         x1         x1         x1         x1        
 element  1:r050     1:r051     1:r052     1:r053     1:rg060    1:rg061   
  r value   42.0362m    3.7170m   97.2909m  140.4645m    8.7927x   24.7472x
  v drop     0.         0.         0.         0.         0.         0.     
  current    0.         0.         0.         0.         0.         0.     
  power      0.         0.         0.         0.         0.         0.     

 subckt   x1         x1         x1         x1         x1         x1        
 element  1:rg062    1:rg063    1:r060     1:r061     1:r062     1:r063    
  r value  178.7972k  123.8014k   42.0362m    3.7170m   97.2909m  140.4645m
  v drop     0.         0.         0.         0.         0.         0.     
  current    0.         0.         0.         0.         0.         0.     
  power      0.         0.         0.         0.         0.         0.     

 subckt   x1         x1         x1         x1         x1         x1        
 element  1:rg070    1:rg071    1:rg072    1:rg073    1:r070     1:r071    
  r value    8.7927x   24.7472x  178.7972k  123.8014k   42.0362m    3.7170m
  v drop     0.         0.         0.         0.         0.         0.     
  current    0.         0.         0.         0.         0.         0.     
  power      0.         0.         0.         0.         0.         0.     

 subckt   x1         x1         x1         x1         x1         x1        
 element  1:r072     1:r073     1:rg080    1:rg081    1:rg082    1:rg083   
  r value   97.2909m  140.4645m    8.7927x   24.7472x  178.7972k  123.8014k
  v drop     0.         0.         0.         0.         0.         0.     
  current    0.         0.         0.         0.         0.         0.     
  power      0.         0.         0.         0.         0.         0.     

 subckt   x1         x1         x1         x1         x1         x1        
 element  1:r080     1:r081     1:r082     1:r083     1:rg090    1:rg091   
  r value   42.0362m    3.7170m   97.2909m  140.4645m    8.7927x   24.7472x
  v drop     0.         0.         0.         0.         0.         0.     
  current    0.         0.         0.         0.         0.         0.     
  power      0.         0.         0.         0.         0.         0.     

 subckt   x1         x1         x1         x1         x1         x1        
 element  1:rg092    1:rg093    1:r090     1:r091     1:r092     1:r093    
  r value  178.7972k  123.8014k   42.0362m    3.7170m   97.2909m  140.4645m
  v drop     0.         0.         0.         0.         0.         0.     
  current    0.         0.         0.         0.         0.         0.     
  power      0.         0.         0.         0.         0.         0.     

 subckt   x1         x1         x1         x1         x1         x1        
 element  1:rg100    1:rg101    1:rg102    1:rg103    1:r100     1:r101    
  r value    8.7927x   24.7472x  178.7972k  123.8014k   42.0362m    3.7170m
  v drop     0.         0.         0.         0.         0.         0.     
  current    0.         0.         0.         0.         0.         0.     
  power      0.         0.         0.         0.         0.         0.     

 subckt   x1         x1         x1         x1         x1         x1        
 element  1:r102     1:r103     1:rg110    1:rg111    1:rg112    1:rg113   
  r value   97.2909m  140.4645m   17.5855x   49.4943x  357.5944k  247.6027k
  v drop     0.         0.         0.         0.         0.         0.     
  current    0.         0.         0.         0.         0.         0.     
  power      0.         0.         0.         0.         0.         0.     

 ******  
 .title test_cpw_sparam

  ******  ac analysis tnom=  25.000 temp=  27.000 *****
x

        freq    s11          s11          s21          s21        
                   real         imag         real         imag    
  500.00000x      4.2303m   -468.0056u    995.6864m     -4.9672m  
    1.00000g      4.3400m     -1.0444m    995.5039m     -9.8171m  
    1.50000g      4.4117m     -1.6708m    995.3179m    -14.6089m  
    2.00000g      4.4542m     -2.3054m    995.1205m    -19.3843m  
    2.50000g      4.4818m     -2.9380m    994.8980m    -24.1523m  
    3.00000g      4.5027m     -3.5672m    994.6438m    -28.9125m  
    3.50000g      4.5211m     -4.1942m    994.3554m    -33.6629m  
    4.00000g      4.5392m     -4.8202m    994.0324m    -38.4012m  
    4.50000g      4.5583m     -5.4466m    993.6756m    -43.1259m  
    5.00000g      4.5790m     -6.0744m    993.2859m    -47.8356m  
    5.50000g      4.6015m     -6.7048m    992.8649m    -52.5296m  
    6.00000g      4.6259m     -7.3388m    992.4139m    -57.2073m  
    6.50000g      4.6518m     -7.9773m    991.9343m    -61.8683m  
    7.00000g      4.6789m     -8.6211m    991.4274m    -66.5126m  
    7.50000g      4.7067m     -9.2709m    990.8947m    -71.1401m  
    8.00000g      4.7345m     -9.9273m    990.3372m    -75.7509m  
    8.50000g      4.7617m    -10.5906m    989.7561m    -80.3455m  
    9.00000g      4.7876m    -11.2613m    989.1523m    -84.9239m  
    9.50000g      4.8114m    -11.9395m    988.5268m    -89.4867m  
   10.00000g      4.8324m    -12.6254m    987.8803m    -94.0342m  
   10.50000g      4.8499m    -13.3189m    987.2137m    -98.5669m  
   11.00000g      4.8632m    -14.0201m    986.5275m   -103.0851m  
   11.50000g      4.8716m    -14.7287m    985.8223m   -107.5894m  
   12.00000g      4.8744m    -15.4447m    985.0987m   -112.0802m  
   12.50000g      4.8712m    -16.1677m    984.3570m   -116.5581m  
   13.00000g      4.8614m    -16.8974m    983.5978m   -121.0233m  
   13.50000g      4.8445m    -17.6336m    982.8212m   -125.4764m  
   14.00000g      4.8200m    -18.3759m    982.0277m   -129.9178m  
   14.50000g      4.7877m    -19.1238m    981.2173m   -134.3480m  
   15.00000g      4.7471m    -19.8771m    980.3904m   -138.7673m  
   15.50000g      4.6980m    -20.6352m    979.5471m   -143.1760m  
   16.00000g      4.6401m    -21.3979m    978.6874m   -147.5747m  
   16.50000g      4.5732m    -22.1647m    977.8116m   -151.9635m  
   17.00000g      4.4971m    -22.9352m    976.9197m   -156.3429m  
   17.50000g      4.4117m    -23.7091m    976.0117m   -160.7130m  
   18.00000g      4.3169m    -24.4859m    975.0877m   -165.0743m  
   18.50000g      4.2125m    -25.2653m    974.1477m   -169.4269m  
   19.00000g      4.0986m    -26.0469m    973.1916m   -173.7711m  
   19.50000g      3.9751m    -26.8303m    972.2195m   -178.1070m  
   20.00000g      3.8419m    -27.6153m    971.2313m   -182.4350m  
   20.50000g      3.6991m    -28.4016m    970.2270m   -186.7551m  
   21.00000g      3.5466m    -29.1887m    969.2065m   -191.0675m  
   21.50000g      3.3845m    -29.9765m    968.1698m   -195.3724m  
   22.00000g      3.2129m    -30.7646m    967.1169m   -199.6699m  
   22.50000g      3.0318m    -31.5528m    966.0477m   -203.9600m  
   23.00000g      2.8412m    -32.3408m    964.9621m   -208.2430m  
   23.50000g      2.6411m    -33.1284m    963.8600m   -212.5188m  
   24.00000g      2.4318m    -33.9154m    962.7414m   -216.7875m  
   24.50000g      2.2132m    -34.7014m    961.6063m   -221.0492m  
   25.00000g      1.9854m    -35.4864m    960.4545m   -225.3039m  
   25.50000g      1.7486m    -36.2702m    959.2860m   -229.5517m  
   26.00000g      1.5027m    -37.0525m    958.1008m   -233.7925m  
   26.50000g      1.2479m    -37.8331m    956.8988m   -238.0265m  
   27.00000g    984.2995u    -38.6119m    955.6799m   -242.2535m  
   27.50000g    711.9355u    -39.3888m    954.4441m   -246.4736m  
   28.00000g    430.9211u    -40.1636m    953.1913m   -250.6867m  
   28.50000g    141.3475u    -40.9361m    951.9215m   -254.8929m  
   29.00000g   -156.6939u    -41.7062m    950.6347m   -259.0922m  
   29.50000g   -463.1120u    -42.4738m    949.3307m   -263.2844m  
   30.00000g   -777.8162u    -43.2387m    948.0096m   -267.4696m  
   30.50000g     -1.1007m    -44.0009m    946.6713m   -271.6477m  
   31.00000g     -1.4317m    -44.7602m    945.3158m   -275.8187m  
   31.50000g     -1.7707m    -45.5165m    943.9431m   -279.9824m  
   32.00000g     -2.1177m    -46.2696m    942.5531m   -284.1390m  
   32.50000g     -2.4725m    -47.0196m    941.1458m   -288.2882m  
   33.00000g     -2.8351m    -47.7663m    939.7213m   -292.4301m  
   33.50000g     -3.2053m    -48.5096m    938.2794m   -296.5646m  
   34.00000g     -3.5831m    -49.2494m    936.8201m   -300.6915m  
   34.50000g     -3.9684m    -49.9857m    935.3436m   -304.8110m  
   35.00000g     -4.3612m    -50.7183m    933.8496m   -308.9228m  
   35.50000g     -4.7613m    -51.4472m    932.3384m   -313.0269m  
   36.00000g     -5.1686m    -52.1723m    930.8097m   -317.1232m  
   36.50000g     -5.5832m    -52.8935m    929.2638m   -321.2117m  
   37.00000g     -6.0049m    -53.6107m    927.7004m   -325.2922m  
   37.50000g     -6.4336m    -54.3240m    926.1197m   -329.3648m  
   38.00000g     -6.8692m    -55.0331m    924.5217m   -333.4293m  
   38.50000g     -7.3118m    -55.7381m    922.9064m   -337.4856m  
   39.00000g     -7.7612m    -56.4389m    921.2738m   -341.5337m  
   39.50000g     -8.2173m    -57.1354m    919.6238m   -345.5734m  
   40.00000g     -8.6801m    -57.8275m    917.9566m   -349.6048m  
   40.50000g     -9.1495m    -58.5152m    916.2722m   -353.6277m  
   41.00000g     -9.6254m    -59.1985m    914.5705m   -357.6420m  
   41.50000g    -10.1078m    -59.8773m    912.8516m   -361.6476m  
   42.00000g    -10.5966m    -60.5514m    911.1155m   -365.6446m  
   42.50000g    -11.0918m    -61.2210m    909.3623m   -369.6327m  
   43.00000g    -11.5932m    -61.8858m    907.5920m   -373.6119m  
   43.50000g    -12.1008m    -62.5459m    905.8045m   -377.5822m  
   44.00000g    -12.6145m    -63.2012m    904.0000m   -381.5433m  
   44.50000g    -13.1343m    -63.8517m    902.1785m   -385.4954m  
   45.00000g    -13.6601m    -64.4973m    900.3400m   -389.4382m  
   45.50000g    -14.1918m    -65.1379m    898.4845m   -393.3717m  
   46.00000g    -14.7294m    -65.7735m    896.6122m   -397.2959m  
   46.50000g    -15.2729m    -66.4041m    894.7229m   -401.2105m  
   47.00000g    -15.8221m    -67.0296m    892.8169m   -405.1156m  
   47.50000g    -16.3769m    -67.6500m    890.8940m   -409.0111m  
   48.00000g    -16.9374m    -68.2651m    888.9544m   -412.8969m  
   48.50000g    -17.5035m    -68.8751m    886.9982m   -416.7729m  
   49.00000g    -18.0751m    -69.4798m    885.0252m   -420.6390m  
   49.50000g    -18.6521m    -70.0791m    883.0357m   -424.4952m  
   50.00000g    -19.2345m    -70.6731m    881.0296m   -428.3414m  
   50.50000g    -19.8222m    -71.2617m    879.0070m   -432.1775m  
   51.00000g    -20.4152m    -71.8448m    876.9680m   -436.0034m  
   51.50000g    -21.0134m    -72.4225m    874.9125m   -439.8190m  
   52.00000g    -21.6167m    -72.9946m    872.8407m   -443.6243m  
   52.50000g    -22.2251m    -73.5612m    870.7526m   -447.4192m  
   53.00000g    -22.8385m    -74.1221m    868.6483m   -451.2036m  
   53.50000g    -23.4568m    -74.6774m    866.5278m   -454.9775m  
   54.00000g    -24.0801m    -75.2270m    864.3911m   -458.7407m  
   54.50000g    -24.7082m    -75.7709m    862.2384m   -462.4933m  
   55.00000g    -25.3411m    -76.3090m    860.0696m   -466.2350m  
   55.50000g    -25.9787m    -76.8413m    857.8849m   -469.9660m  
   56.00000g    -26.6209m    -77.3677m    855.6843m   -473.6860m  
   56.50000g    -27.2678m    -77.8883m    853.4678m   -477.3950m  
   57.00000g    -27.9192m    -78.4029m    851.2356m   -481.0930m  
   57.50000g    -28.5750m    -78.9116m    848.9876m   -484.7798m  
   58.00000g    -29.2353m    -79.4144m    846.7239m   -488.4554m  
   58.50000g    -29.9000m    -79.9110m    844.4447m   -492.1198m  
   59.00000g    -30.5689m    -80.4017m    842.1499m   -495.7729m  
   59.50000g    -31.2420m    -80.8862m    839.8396m   -499.4145m  
   60.00000g    -31.9194m    -81.3646m    837.5139m   -503.0447m  
   60.50000g    -32.6008m    -81.8369m    835.1728m   -506.6633m  
   61.00000g    -33.2863m    -82.3029m    832.8165m   -510.2704m  
   61.50000g    -33.9758m    -82.7628m    830.4449m   -513.8658m  
   62.00000g    -34.6692m    -83.2164m    828.0581m   -517.4495m  
   62.50000g    -35.3665m    -83.6637m    825.6563m   -521.0213m  
   63.00000g    -36.0676m    -84.1047m    823.2394m   -524.5814m  
   63.50000g    -36.7725m    -84.5393m    820.8075m   -528.1295m  
   64.00000g    -37.4810m    -84.9676m    818.3607m   -531.6656m  
   64.50000g    -38.1932m    -85.3895m    815.8991m   -535.1897m  
   65.00000g    -38.9089m    -85.8049m    813.4227m   -538.7017m  
   65.50000g    -39.6281m    -86.2139m    810.9316m   -542.2016m  
   66.00000g    -40.3507m    -86.6163m    808.4259m   -545.6892m  
   66.50000g    -41.0768m    -87.0123m    805.9055m   -549.1645m  
   67.00000g    -41.8061m    -87.4017m    803.3707m   -552.6276m  
   67.50000g    -42.5387m    -87.7846m    800.8214m   -556.0782m  
   68.00000g    -43.2745m    -88.1609m    798.2578m   -559.5163m  
   68.50000g    -44.0134m    -88.5305m    795.6798m   -562.9420m  
   69.00000g    -44.7554m    -88.8936m    793.0876m   -566.3551m  
   69.50000g    -45.5004m    -89.2499m    790.4812m   -569.7556m  
   70.00000g    -46.2483m    -89.5996m    787.8607m   -573.1434m  
   70.50000g    -46.9991m    -89.9425m    785.2262m   -576.5185m  
   71.00000g    -47.7527m    -90.2788m    782.5778m   -579.8808m  
   71.50000g    -48.5090m    -90.6082m    779.9154m   -583.2302m  
   72.00000g    -49.2681m    -90.9309m    777.2392m   -586.5668m  
   72.50000g    -50.0297m    -91.2468m    774.5492m   -589.8904m  
   73.00000g    -50.7940m    -91.5559m    771.8456m   -593.2011m  
   73.50000g    -51.5607m    -91.8581m    769.1283m   -596.4987m  
   74.00000g    -52.3298m    -92.1535m    766.3975m   -599.7832m  
   74.50000g    -53.1013m    -92.4421m    763.6532m   -603.0545m  
   75.00000g    -53.8752m    -92.7237m    760.8955m   -606.3127m  
   75.50000g    -54.6512m    -92.9984m    758.1245m   -609.5576m  
   76.00000g    -55.4295m    -93.2662m    755.3402m   -612.7892m  
   76.50000g    -56.2098m    -93.5271m    752.5427m   -616.0075m  
   77.00000g    -56.9922m    -93.7810m    749.7320m   -619.2124m  
   77.50000g    -57.7766m    -94.0280m    746.9083m   -622.4039m  
   78.00000g    -58.5629m    -94.2679m    744.0717m   -625.5818m  
   78.50000g    -59.3511m    -94.5009m    741.2221m   -628.7463m  
   79.00000g    -60.1411m    -94.7268m    738.3596m   -631.8972m  
   79.50000g    -60.9327m    -94.9458m    735.4844m   -635.0344m  
   80.00000g    -61.7261m    -95.1577m    732.5965m   -638.1580m  
   80.50000g    -62.5210m    -95.3625m    729.6959m   -641.2679m  
   81.00000g    -63.3175m    -95.5603m    726.7828m   -644.3640m  
   81.50000g    -64.1154m    -95.7511m    723.8572m   -647.4463m  
   82.00000g    -64.9148m    -95.9347m    720.9192m   -650.5148m  
   82.50000g    -65.7155m    -96.1113m    717.9688m   -653.5694m  
   83.00000g    -66.5174m    -96.2808m    715.0061m   -656.6101m  
   83.50000g    -67.3206m    -96.4431m    712.0313m   -659.6368m  
   84.00000g    -68.1249m    -96.5984m    709.0443m   -662.6495m  
   84.50000g    -68.9303m    -96.7465m    706.0452m   -665.6481m  
   85.00000g    -69.7367m    -96.8876m    703.0342m   -668.6327m  
   85.50000g    -70.5441m    -97.0215m    700.0112m   -671.6032m  
   86.00000g    -71.3524m    -97.1482m    696.9764m   -674.5594m  
   86.50000g    -72.1614m    -97.2679m    693.9297m   -677.5015m  
   87.00000g    -72.9713m    -97.3804m    690.8714m   -680.4293m  
   87.50000g    -73.7818m    -97.4857m    687.8015m   -683.3428m  
   88.00000g    -74.5929m    -97.5839m    684.7200m   -686.2421m  
   88.50000g    -75.4046m    -97.6749m    681.6270m   -689.1269m  
   89.00000g    -76.2168m    -97.7588m    678.5226m   -691.9974m  
   89.50000g    -77.0295m    -97.8356m    675.4068m   -694.8534m  
   90.00000g    -77.8425m    -97.9052m    672.2797m   -697.6950m  
   90.50000g    -78.6558m    -97.9676m    669.1415m   -700.5221m  
   91.00000g    -79.4694m    -98.0229m    665.9921m   -703.3346m  
   91.50000g    -80.2831m    -98.0710m    662.8316m   -706.1325m  
   92.00000g    -81.0970m    -98.1120m    659.6602m   -708.9159m  
   92.50000g    -81.9109m    -98.1459m    656.4778m   -711.6846m  
   93.00000g    -82.7248m    -98.1726m    653.2846m   -714.4386m  
   93.50000g    -83.5386m    -98.1922m    650.0806m   -717.1780m  
   94.00000g    -84.3522m    -98.2046m    646.8658m   -719.9026m  
   94.50000g    -85.1657m    -98.2099m    643.6405m   -722.6124m  
   95.00000g    -85.9789m    -98.2081m    640.4046m   -725.3074m  
   95.50000g    -86.7917m    -98.1991m    637.1582m   -727.9876m  
   96.00000g    -87.6042m    -98.1831m    633.9013m   -730.6529m  
   96.50000g    -88.4162m    -98.1599m    630.6342m   -733.3033m  
   97.00000g    -89.2276m    -98.1297m    627.3567m   -735.9388m  
   97.50000g    -90.0385m    -98.0923m    624.0690m   -738.5593m  
   98.00000g    -90.8487m    -98.0479m    620.7712m   -741.1648m  
   98.50000g    -91.6582m    -97.9964m    617.4633m   -743.7553m  
   99.00000g    -92.4670m    -97.9378m    614.1454m   -746.3308m  
   99.50000g    -93.2749m    -97.8722m    610.8176m   -748.8912m  
  100.00000g    -94.0819m    -97.7996m    607.4800m   -751.4365m  
y
x

        freq    s12          s12          s22          s22        
                   real         imag         real         imag    
  500.00000x    995.6864m     -4.9672m      4.2303m   -468.0056u  
    1.00000g    995.5039m     -9.8171m      4.3400m     -1.0444m  
    1.50000g    995.3179m    -14.6089m      4.4117m     -1.6708m  
    2.00000g    995.1205m    -19.3843m      4.4542m     -2.3054m  
    2.50000g    994.8980m    -24.1523m      4.4818m     -2.9380m  
    3.00000g    994.6438m    -28.9125m      4.5027m     -3.5672m  
    3.50000g    994.3554m    -33.6629m      4.5211m     -4.1942m  
    4.00000g    994.0324m    -38.4012m      4.5392m     -4.8202m  
    4.50000g    993.6756m    -43.1259m      4.5583m     -5.4466m  
    5.00000g    993.2859m    -47.8356m      4.5790m     -6.0744m  
    5.50000g    992.8649m    -52.5296m      4.6015m     -6.7048m  
    6.00000g    992.4139m    -57.2073m      4.6259m     -7.3388m  
    6.50000g    991.9343m    -61.8683m      4.6518m     -7.9773m  
    7.00000g    991.4274m    -66.5126m      4.6789m     -8.6211m  
    7.50000g    990.8947m    -71.1401m      4.7067m     -9.2709m  
    8.00000g    990.3372m    -75.7509m      4.7345m     -9.9273m  
    8.50000g    989.7561m    -80.3455m      4.7617m    -10.5906m  
    9.00000g    989.1523m    -84.9239m      4.7876m    -11.2613m  
    9.50000g    988.5268m    -89.4867m      4.8114m    -11.9395m  
   10.00000g    987.8803m    -94.0342m      4.8324m    -12.6254m  
   10.50000g    987.2137m    -98.5669m      4.8499m    -13.3189m  
   11.00000g    986.5275m   -103.0851m      4.8632m    -14.0201m  
   11.50000g    985.8223m   -107.5894m      4.8716m    -14.7287m  
   12.00000g    985.0987m   -112.0802m      4.8744m    -15.4447m  
   12.50000g    984.3570m   -116.5581m      4.8712m    -16.1677m  
   13.00000g    983.5978m   -121.0233m      4.8614m    -16.8974m  
   13.50000g    982.8212m   -125.4764m      4.8445m    -17.6336m  
   14.00000g    982.0277m   -129.9178m      4.8200m    -18.3759m  
   14.50000g    981.2173m   -134.3480m      4.7877m    -19.1238m  
   15.00000g    980.3904m   -138.7673m      4.7471m    -19.8771m  
   15.50000g    979.5471m   -143.1760m      4.6980m    -20.6352m  
   16.00000g    978.6874m   -147.5747m      4.6401m    -21.3979m  
   16.50000g    977.8116m   -151.9635m      4.5732m    -22.1647m  
   17.00000g    976.9197m   -156.3429m      4.4971m    -22.9352m  
   17.50000g    976.0117m   -160.7130m      4.4117m    -23.7091m  
   18.00000g    975.0877m   -165.0743m      4.3169m    -24.4859m  
   18.50000g    974.1477m   -169.4269m      4.2125m    -25.2653m  
   19.00000g    973.1916m   -173.7711m      4.0986m    -26.0469m  
   19.50000g    972.2195m   -178.1070m      3.9751m    -26.8303m  
   20.00000g    971.2313m   -182.4350m      3.8419m    -27.6153m  
   20.50000g    970.2270m   -186.7551m      3.6991m    -28.4016m  
   21.00000g    969.2065m   -191.0675m      3.5466m    -29.1887m  
   21.50000g    968.1698m   -195.3724m      3.3845m    -29.9765m  
   22.00000g    967.1169m   -199.6699m      3.2129m    -30.7646m  
   22.50000g    966.0477m   -203.9600m      3.0318m    -31.5528m  
   23.00000g    964.9621m   -208.2430m      2.8412m    -32.3408m  
   23.50000g    963.8600m   -212.5188m      2.6411m    -33.1284m  
   24.00000g    962.7414m   -216.7875m      2.4318m    -33.9154m  
   24.50000g    961.6063m   -221.0492m      2.2132m    -34.7014m  
   25.00000g    960.4545m   -225.3039m      1.9854m    -35.4864m  
   25.50000g    959.2860m   -229.5517m      1.7486m    -36.2702m  
   26.00000g    958.1008m   -233.7925m      1.5027m    -37.0525m  
   26.50000g    956.8988m   -238.0265m      1.2479m    -37.8331m  
   27.00000g    955.6799m   -242.2535m    984.2995u    -38.6119m  
   27.50000g    954.4441m   -246.4736m    711.9355u    -39.3888m  
   28.00000g    953.1913m   -250.6867m    430.9211u    -40.1636m  
   28.50000g    951.9215m   -254.8929m    141.3475u    -40.9361m  
   29.00000g    950.6347m   -259.0922m   -156.6939u    -41.7062m  
   29.50000g    949.3307m   -263.2844m   -463.1120u    -42.4738m  
   30.00000g    948.0096m   -267.4696m   -777.8162u    -43.2387m  
   30.50000g    946.6713m   -271.6477m     -1.1007m    -44.0009m  
   31.00000g    945.3158m   -275.8187m     -1.4317m    -44.7602m  
   31.50000g    943.9431m   -279.9824m     -1.7707m    -45.5165m  
   32.00000g    942.5531m   -284.1390m     -2.1177m    -46.2696m  
   32.50000g    941.1458m   -288.2882m     -2.4725m    -47.0196m  
   33.00000g    939.7213m   -292.4301m     -2.8351m    -47.7663m  
   33.50000g    938.2794m   -296.5646m     -3.2053m    -48.5096m  
   34.00000g    936.8201m   -300.6915m     -3.5831m    -49.2494m  
   34.50000g    935.3436m   -304.8110m     -3.9684m    -49.9857m  
   35.00000g    933.8496m   -308.9228m     -4.3612m    -50.7183m  
   35.50000g    932.3384m   -313.0269m     -4.7613m    -51.4472m  
   36.00000g    930.8097m   -317.1232m     -5.1686m    -52.1723m  
   36.50000g    929.2638m   -321.2117m     -5.5832m    -52.8935m  
   37.00000g    927.7004m   -325.2922m     -6.0049m    -53.6107m  
   37.50000g    926.1197m   -329.3648m     -6.4336m    -54.3240m  
   38.00000g    924.5217m   -333.4293m     -6.8692m    -55.0331m  
   38.50000g    922.9064m   -337.4856m     -7.3118m    -55.7381m  
   39.00000g    921.2738m   -341.5337m     -7.7612m    -56.4389m  
   39.50000g    919.6238m   -345.5734m     -8.2173m    -57.1354m  
   40.00000g    917.9566m   -349.6048m     -8.6801m    -57.8275m  
   40.50000g    916.2722m   -353.6277m     -9.1495m    -58.5152m  
   41.00000g    914.5705m   -357.6420m     -9.6254m    -59.1985m  
   41.50000g    912.8516m   -361.6476m    -10.1078m    -59.8773m  
   42.00000g    911.1155m   -365.6446m    -10.5966m    -60.5514m  
   42.50000g    909.3623m   -369.6327m    -11.0918m    -61.2210m  
   43.00000g    907.5920m   -373.6119m    -11.5932m    -61.8858m  
   43.50000g    905.8045m   -377.5822m    -12.1008m    -62.5459m  
   44.00000g    904.0000m   -381.5433m    -12.6145m    -63.2012m  
   44.50000g    902.1785m   -385.4954m    -13.1343m    -63.8517m  
   45.00000g    900.3400m   -389.4382m    -13.6601m    -64.4973m  
   45.50000g    898.4845m   -393.3717m    -14.1918m    -65.1379m  
   46.00000g    896.6122m   -397.2959m    -14.7294m    -65.7735m  
   46.50000g    894.7229m   -401.2105m    -15.2729m    -66.4041m  
   47.00000g    892.8169m   -405.1156m    -15.8221m    -67.0296m  
   47.50000g    890.8940m   -409.0111m    -16.3769m    -67.6500m  
   48.00000g    888.9544m   -412.8969m    -16.9374m    -68.2651m  
   48.50000g    886.9982m   -416.7729m    -17.5035m    -68.8751m  
   49.00000g    885.0252m   -420.6390m    -18.0751m    -69.4798m  
   49.50000g    883.0357m   -424.4952m    -18.6521m    -70.0791m  
   50.00000g    881.0296m   -428.3414m    -19.2345m    -70.6731m  
   50.50000g    879.0070m   -432.1775m    -19.8222m    -71.2617m  
   51.00000g    876.9680m   -436.0034m    -20.4152m    -71.8448m  
   51.50000g    874.9125m   -439.8190m    -21.0134m    -72.4225m  
   52.00000g    872.8407m   -443.6243m    -21.6167m    -72.9946m  
   52.50000g    870.7526m   -447.4192m    -22.2251m    -73.5612m  
   53.00000g    868.6483m   -451.2036m    -22.8385m    -74.1221m  
   53.50000g    866.5278m   -454.9775m    -23.4568m    -74.6774m  
   54.00000g    864.3911m   -458.7407m    -24.0801m    -75.2270m  
   54.50000g    862.2384m   -462.4933m    -24.7082m    -75.7709m  
   55.00000g    860.0696m   -466.2350m    -25.3411m    -76.3090m  
   55.50000g    857.8849m   -469.9660m    -25.9787m    -76.8413m  
   56.00000g    855.6843m   -473.6860m    -26.6209m    -77.3677m  
   56.50000g    853.4678m   -477.3950m    -27.2678m    -77.8883m  
   57.00000g    851.2356m   -481.0930m    -27.9192m    -78.4029m  
   57.50000g    848.9876m   -484.7798m    -28.5750m    -78.9116m  
   58.00000g    846.7239m   -488.4554m    -29.2353m    -79.4144m  
   58.50000g    844.4447m   -492.1198m    -29.9000m    -79.9110m  
   59.00000g    842.1499m   -495.7729m    -30.5689m    -80.4017m  
   59.50000g    839.8396m   -499.4145m    -31.2420m    -80.8862m  
   60.00000g    837.5139m   -503.0447m    -31.9194m    -81.3646m  
   60.50000g    835.1728m   -506.6633m    -32.6008m    -81.8369m  
   61.00000g    832.8165m   -510.2704m    -33.2863m    -82.3029m  
   61.50000g    830.4449m   -513.8658m    -33.9758m    -82.7628m  
   62.00000g    828.0581m   -517.4495m    -34.6692m    -83.2164m  
   62.50000g    825.6563m   -521.0213m    -35.3665m    -83.6637m  
   63.00000g    823.2394m   -524.5814m    -36.0676m    -84.1047m  
   63.50000g    820.8075m   -528.1295m    -36.7725m    -84.5393m  
   64.00000g    818.3607m   -531.6656m    -37.4810m    -84.9676m  
   64.50000g    815.8991m   -535.1897m    -38.1932m    -85.3895m  
   65.00000g    813.4227m   -538.7017m    -38.9089m    -85.8049m  
   65.50000g    810.9316m   -542.2016m    -39.6281m    -86.2139m  
   66.00000g    808.4259m   -545.6892m    -40.3507m    -86.6163m  
   66.50000g    805.9055m   -549.1645m    -41.0768m    -87.0123m  
   67.00000g    803.3707m   -552.6276m    -41.8061m    -87.4017m  
   67.50000g    800.8214m   -556.0782m    -42.5387m    -87.7846m  
   68.00000g    798.2578m   -559.5163m    -43.2745m    -88.1609m  
   68.50000g    795.6798m   -562.9420m    -44.0134m    -88.5305m  
   69.00000g    793.0876m   -566.3551m    -44.7554m    -88.8936m  
   69.50000g    790.4812m   -569.7556m    -45.5004m    -89.2499m  
   70.00000g    787.8607m   -573.1434m    -46.2483m    -89.5996m  
   70.50000g    785.2262m   -576.5185m    -46.9991m    -89.9425m  
   71.00000g    782.5778m   -579.8808m    -47.7527m    -90.2788m  
   71.50000g    779.9154m   -583.2302m    -48.5090m    -90.6082m  
   72.00000g    777.2392m   -586.5668m    -49.2681m    -90.9309m  
   72.50000g    774.5492m   -589.8904m    -50.0297m    -91.2468m  
   73.00000g    771.8456m   -593.2011m    -50.7940m    -91.5559m  
   73.50000g    769.1283m   -596.4987m    -51.5607m    -91.8581m  
   74.00000g    766.3975m   -599.7832m    -52.3298m    -92.1535m  
   74.50000g    763.6532m   -603.0545m    -53.1013m    -92.4421m  
   75.00000g    760.8955m   -606.3127m    -53.8752m    -92.7237m  
   75.50000g    758.1245m   -609.5576m    -54.6512m    -92.9984m  
   76.00000g    755.3402m   -612.7892m    -55.4295m    -93.2662m  
   76.50000g    752.5427m   -616.0075m    -56.2098m    -93.5271m  
   77.00000g    749.7320m   -619.2124m    -56.9922m    -93.7810m  
   77.50000g    746.9083m   -622.4039m    -57.7766m    -94.0280m  
   78.00000g    744.0717m   -625.5818m    -58.5629m    -94.2679m  
   78.50000g    741.2221m   -628.7463m    -59.3511m    -94.5009m  
   79.00000g    738.3596m   -631.8972m    -60.1411m    -94.7268m  
   79.50000g    735.4844m   -635.0344m    -60.9327m    -94.9458m  
   80.00000g    732.5965m   -638.1580m    -61.7261m    -95.1577m  
   80.50000g    729.6959m   -641.2679m    -62.5210m    -95.3625m  
   81.00000g    726.7828m   -644.3640m    -63.3175m    -95.5603m  
   81.50000g    723.8572m   -647.4463m    -64.1154m    -95.7511m  
   82.00000g    720.9192m   -650.5148m    -64.9148m    -95.9347m  
   82.50000g    717.9688m   -653.5694m    -65.7155m    -96.1113m  
   83.00000g    715.0061m   -656.6101m    -66.5174m    -96.2808m  
   83.50000g    712.0313m   -659.6368m    -67.3206m    -96.4431m  
   84.00000g    709.0443m   -662.6495m    -68.1249m    -96.5984m  
   84.50000g    706.0452m   -665.6481m    -68.9303m    -96.7465m  
   85.00000g    703.0342m   -668.6327m    -69.7367m    -96.8876m  
   85.50000g    700.0112m   -671.6032m    -70.5441m    -97.0215m  
   86.00000g    696.9764m   -674.5594m    -71.3524m    -97.1482m  
   86.50000g    693.9297m   -677.5015m    -72.1614m    -97.2679m  
   87.00000g    690.8714m   -680.4293m    -72.9713m    -97.3804m  
   87.50000g    687.8015m   -683.3428m    -73.7818m    -97.4857m  
   88.00000g    684.7200m   -686.2421m    -74.5929m    -97.5839m  
   88.50000g    681.6270m   -689.1269m    -75.4046m    -97.6749m  
   89.00000g    678.5226m   -691.9974m    -76.2168m    -97.7588m  
   89.50000g    675.4068m   -694.8534m    -77.0295m    -97.8356m  
   90.00000g    672.2797m   -697.6950m    -77.8425m    -97.9052m  
   90.50000g    669.1415m   -700.5221m    -78.6558m    -97.9676m  
   91.00000g    665.9921m   -703.3346m    -79.4694m    -98.0229m  
   91.50000g    662.8316m   -706.1325m    -80.2831m    -98.0710m  
   92.00000g    659.6602m   -708.9159m    -81.0970m    -98.1120m  
   92.50000g    656.4778m   -711.6846m    -81.9109m    -98.1459m  
   93.00000g    653.2846m   -714.4386m    -82.7248m    -98.1726m  
   93.50000g    650.0806m   -717.1780m    -83.5386m    -98.1922m  
   94.00000g    646.8658m   -719.9026m    -84.3522m    -98.2046m  
   94.50000g    643.6405m   -722.6124m    -85.1657m    -98.2099m  
   95.00000g    640.4046m   -725.3074m    -85.9789m    -98.2081m  
   95.50000g    637.1582m   -727.9876m    -86.7917m    -98.1991m  
   96.00000g    633.9013m   -730.6529m    -87.6042m    -98.1831m  
   96.50000g    630.6342m   -733.3033m    -88.4162m    -98.1599m  
   97.00000g    627.3567m   -735.9388m    -89.2276m    -98.1297m  
   97.50000g    624.0690m   -738.5593m    -90.0385m    -98.0923m  
   98.00000g    620.7712m   -741.1648m    -90.8487m    -98.0479m  
   98.50000g    617.4633m   -743.7553m    -91.6582m    -97.9964m  
   99.00000g    614.1454m   -746.3308m    -92.4670m    -97.9378m  
   99.50000g    610.8176m   -748.8912m    -93.2749m    -97.8722m  
  100.00000g    607.4800m   -751.4365m    -94.0819m    -97.7996m  
y

          ***** job concluded
1****** HSPICE -- C-2009.09 32-BIT (Aug 24 2009) winnt ******                   
 ******  
 .title test_cpw_sparam

  ******  job statistics summary tnom=  25.000 temp=  27.000 *****

  ******  HSPICE Threads Information  ******

  Command Line Threads Count                  :     1
  Available CPU Count                         :     4
  Actual Model Evaluation(Load) Threads Count :     1
  Actual Solver Threads Count                 :     1


  ******  Circuit Statistics  ******
  # nodes       =      85 # elements   =     170
  # resistors   =      84 # capacitors =      44 # inductors   =      40
  # mutual_inds =       0 # vccs       =       0 # vcvs        =       0
  # cccs        =       0 # ccvs       =       0 # volt_srcs   =       0
  # curr_srcs   =       0 # diodes     =       0 # bjts        =       0
  # jfets       =       0 # mosfets    =       0 # U elements  =       0
  # T elements  =       0 # W elements =       0 # B elements  =       0
  # S elements  =       0 # P elements =       2 # va device   =       0


  ******  Runtime Statistics (seconds)  ******

  analysis           time    # points   tot. iter  conv.iter
  op point           0.01           1           3
  ac analysis        0.03         200         200
  readin             0.05
  errchk             0.01
  setup              0.01
  output             0.00


           total memory used          376  kbytes
           total cpu time            0.12 seconds
           total elapsed time        0.15 seconds
           job started at     17:20:01 02/13/2017
           job ended   at     17:20:01 02/13/2017


  lic: Release hspice token(s) 
