 ****** HSPICE -- C-2009.09 32-BIT (Aug 24 2009) winnt ******                   
  Copyright (C) 2009 Synopsys, Inc. All Rights Reserved.                        
  Unpublished-rights reserved under US copyright laws.
  This program is protected by law and is subject to the 
  terms and conditions of the license agreement from Synopsys.
  Use of this program is your acceptance to be bound by the 
  license agreement. HSPICE is the trademark of Synopsys, Inc.
  Input File: E:\microstrip_modeling\CPW_modeling\Modeling_of_CPW_v11(2-D-SVDfit
  lic:  
  lic: FLEXlm: v8.5b 
  lic: USER:   MY                   HOSTNAME: MY-PC 
  lic: HOSTID: "22104182b4cb b0104182b4cb b083fe554343 b0104182b4cc 005056c00001
  
  lic: Using FLEXlm license file: 
  lic: 27000@localhost 
  lic: Checkout 1 hspice 
  lic: License/Maintenance for hspice will expire on 31-dec-2028/2008.120 
  lic: FLOATING license(s) on SERVER localhost 
  lic:   
 Init: read install configuration file: D:\synopsys\Hspice_C-2009.09\meta.cfg
1****** HSPICE -- C-2009.09 32-BIT (Aug 24 2009) winnt ******                   
 ******  
 .title test_cpw

  ******  circuit name directory
 circuit number to circuit name directory
   number circuitname                     definition         multiplier
        0 main circuit
        1 x1.                             cpw                1.00 



 **** List of Port Elements
Port Number     Mode        Zo       DC bias
     1         single    ( 50.0    ,0.0)    0.00    
     2         single    ( 50.0    ,0.0)    0.00    
 
      
 *****************************************************************
 ******  option summary
 ******
 runlvl  = 6         bypass  = 2         
  Opening plot unit= 79
 file=hspice_project\cpw\test_cpw.pa0                                          




 **** List of Port Elements
Port Number     Mode        Zo       DC bias
     1         single    ( 50.0    ,0.0)    0.00    
     2         single    ( 50.0    ,0.0)    0.00    
1****** HSPICE -- C-2009.09 32-BIT (Aug 24 2009) winnt ******                   
 ******  
 .title test_cpw

  ******  operating point information tnom=  25.000 temp=  27.000 *****
 ***** operating point status is all       simulation time is     0.     
    node    =voltage      node    =voltage      node    =voltage

 +0:a       =   0.      0:b       =   0.      1:np011   =   0.     
 +1:np012   =   0.      1:np013   =   0.      1:np021   =   0.     
 +1:np022   =   0.      1:np023   =   0.      1:np031   =   0.     
 +1:np032   =   0.      1:np033   =   0.      1:np041   =   0.     
 +1:np042   =   0.      1:np043   =   0.      1:np051   =   0.     
 +1:np052   =   0.      1:np053   =   0.      1:np061   =   0.     
 +1:np062   =   0.      1:np063   =   0.      1:np071   =   0.     
 +1:np072   =   0.      1:np073   =   0.      1:np081   =   0.     
 +1:np082   =   0.      1:np083   =   0.      1:np091   =   0.     
 +1:np092   =   0.      1:np093   =   0.      1:np101   =   0.     
 +1:np102   =   0.      1:np103   =   0.      1:np111   =   0.     
 +1:np112   =   0.      1:np113   =   0.      1:ns011   =   0.     
 +1:ns012   =   0.      1:ns013   =   0.      1:ns014   =   0.     
 +1:ns015   =   0.      1:ns021   =   0.      1:ns022   =   0.     
 +1:ns023   =   0.      1:ns024   =   0.      1:ns025   =   0.     
 +1:ns031   =   0.      1:ns032   =   0.      1:ns033   =   0.     
 +1:ns034   =   0.      1:ns035   =   0.      1:ns041   =   0.     
 +1:ns042   =   0.      1:ns043   =   0.      1:ns044   =   0.     
 +1:ns045   =   0.      1:ns051   =   0.      1:ns052   =   0.     
 +1:ns053   =   0.      1:ns054   =   0.      1:ns055   =   0.     
 +1:ns061   =   0.      1:ns062   =   0.      1:ns063   =   0.     
 +1:ns064   =   0.      1:ns065   =   0.      1:ns071   =   0.     
 +1:ns072   =   0.      1:ns073   =   0.      1:ns074   =   0.     
 +1:ns075   =   0.      1:ns081   =   0.      1:ns082   =   0.     
 +1:ns083   =   0.      1:ns084   =   0.      1:ns085   =   0.     
 +1:ns091   =   0.      1:ns092   =   0.      1:ns093   =   0.     
 +1:ns094   =   0.      1:ns095   =   0.      1:ns101   =   0.     
 +1:ns102   =   0.      1:ns103   =   0.      1:ns104   =   0.     


 ****  port elements

 subckt                        
 element  0:p1       0:p2      
  volts      0.         0.     
  current    0.         0.     
  power      0.         0.     


     total port element power dissipation=    0.            watts

 **** resistors

 subckt   x1         x1         x1         x1         x1         x1        
 element  1:rg010    1:rg011    1:rg012    1:rg013    1:r010     1:r011    
  r value    7.9494x   30.8495x  166.7092k  142.7622k   67.2799m    6.7839m
  v drop     0.         0.         0.         0.         0.         0.     
  current    0.         0.         0.         0.         0.         0.     
  power      0.         0.         0.         0.         0.         0.     

 subckt   x1         x1         x1         x1         x1         x1        
 element  1:r012     1:r013     1:rg020    1:rg021    1:rg022    1:rg023   
  r value  170.8562m  232.9322m    3.9747x   15.4247x   83.3546k   71.3811k
  v drop     0.         0.         0.         0.         0.         0.     
  current    0.         0.         0.         0.         0.         0.     
  power      0.         0.         0.         0.         0.         0.     

 subckt   x1         x1         x1         x1         x1         x1        
 element  1:r020     1:r021     1:r022     1:r023     1:rg030    1:rg031   
  r value   67.2799m    6.7839m  170.8562m  232.9322m    3.9747x   15.4247x
  v drop     0.         0.         0.         0.         0.         0.     
  current    0.         0.         0.         0.         0.         0.     
  power      0.         0.         0.         0.         0.         0.     

 subckt   x1         x1         x1         x1         x1         x1        
 element  1:rg032    1:rg033    1:r030     1:r031     1:r032     1:r033    
  r value   83.3546k   71.3811k   67.2799m    6.7839m  170.8562m  232.9322m
  v drop     0.         0.         0.         0.         0.         0.     
  current    0.         0.         0.         0.         0.         0.     
  power      0.         0.         0.         0.         0.         0.     

 subckt   x1         x1         x1         x1         x1         x1        
 element  1:rg040    1:rg041    1:rg042    1:rg043    1:r040     1:r041    
  r value    3.9747x   15.4247x   83.3546k   71.3811k   67.2799m    6.7839m
  v drop     0.         0.         0.         0.         0.         0.     
  current    0.         0.         0.         0.         0.         0.     
  power      0.         0.         0.         0.         0.         0.     

 subckt   x1         x1         x1         x1         x1         x1        
 element  1:r042     1:r043     1:rg050    1:rg051    1:rg052    1:rg053   
  r value  170.8562m  232.9322m    3.9747x   15.4247x   83.3546k   71.3811k
  v drop     0.         0.         0.         0.         0.         0.     
  current    0.         0.         0.         0.         0.         0.     
  power      0.         0.         0.         0.         0.         0.     

 subckt   x1         x1         x1         x1         x1         x1        
 element  1:r050     1:r051     1:r052     1:r053     1:rg060    1:rg061   
  r value   67.2799m    6.7839m  170.8562m  232.9322m    3.9747x   15.4247x
  v drop     0.         0.         0.         0.         0.         0.     
  current    0.         0.         0.         0.         0.         0.     
  power      0.         0.         0.         0.         0.         0.     

 subckt   x1         x1         x1         x1         x1         x1        
 element  1:rg062    1:rg063    1:r060     1:r061     1:r062     1:r063    
  r value   83.3546k   71.3811k   67.2799m    6.7839m  170.8562m  232.9322m
  v drop     0.         0.         0.         0.         0.         0.     
  current    0.         0.         0.         0.         0.         0.     
  power      0.         0.         0.         0.         0.         0.     

 subckt   x1         x1         x1         x1         x1         x1        
 element  1:rg070    1:rg071    1:rg072    1:rg073    1:r070     1:r071    
  r value    3.9747x   15.4247x   83.3546k   71.3811k   67.2799m    6.7839m
  v drop     0.         0.         0.         0.         0.         0.     
  current    0.         0.         0.         0.         0.         0.     
  power      0.         0.         0.         0.         0.         0.     

 subckt   x1         x1         x1         x1         x1         x1        
 element  1:r072     1:r073     1:rg080    1:rg081    1:rg082    1:rg083   
  r value  170.8562m  232.9322m    3.9747x   15.4247x   83.3546k   71.3811k
  v drop     0.         0.         0.         0.         0.         0.     
  current    0.         0.         0.         0.         0.         0.     
  power      0.         0.         0.         0.         0.         0.     

 subckt   x1         x1         x1         x1         x1         x1        
 element  1:r080     1:r081     1:r082     1:r083     1:rg090    1:rg091   
  r value   67.2799m    6.7839m  170.8562m  232.9322m    3.9747x   15.4247x
  v drop     0.         0.         0.         0.         0.         0.     
  current    0.         0.         0.         0.         0.         0.     
  power      0.         0.         0.         0.         0.         0.     

 subckt   x1         x1         x1         x1         x1         x1        
 element  1:rg092    1:rg093    1:r090     1:r091     1:r092     1:r093    
  r value   83.3546k   71.3811k   67.2799m    6.7839m  170.8562m  232.9322m
  v drop     0.         0.         0.         0.         0.         0.     
  current    0.         0.         0.         0.         0.         0.     
  power      0.         0.         0.         0.         0.         0.     

 subckt   x1         x1         x1         x1         x1         x1        
 element  1:rg100    1:rg101    1:rg102    1:rg103    1:r100     1:r101    
  r value    3.9747x   15.4247x   83.3546k   71.3811k   67.2799m    6.7839m
  v drop     0.         0.         0.         0.         0.         0.     
  current    0.         0.         0.         0.         0.         0.     
  power      0.         0.         0.         0.         0.         0.     

 subckt   x1         x1         x1         x1         x1         x1        
 element  1:r102     1:r103     1:rg110    1:rg111    1:rg112    1:rg113   
  r value  170.8562m  232.9322m    7.9494x   30.8495x  166.7092k  142.7622k
  v drop     0.         0.         0.         0.         0.         0.     
  current    0.         0.         0.         0.         0.         0.     
  power      0.         0.         0.         0.         0.         0.     

 ******  
 .title test_cpw

  ******  ac analysis tnom=  25.000 temp=  27.000 *****
x

        freq    s11          s11          s21          s21        
                   real         imag         real         imag    
  500.00000x      6.7460m     -1.0287m    993.0578m     -8.7228m  
    1.00000g      6.9249m     -2.2554m    992.6783m    -17.2308m  
    1.50000g      7.0197m     -3.5720m    992.2614m    -25.6307m  
    2.00000g      7.0466m     -4.9016m    991.7929m    -33.9974m  
    2.50000g      7.0324m     -6.2243m    991.2485m    -42.3463m  
    3.00000g      6.9926m     -7.5376m    990.6165m    -50.6758m  
    3.50000g      6.9351m     -8.8429m    989.8931m    -58.9814m  
    4.00000g      6.8647m    -10.1423m    989.0782m    -67.2585m  
    4.50000g      6.7840m    -11.4378m    988.1737m    -75.5038m  
    5.00000g      6.6945m    -12.7316m    987.1822m    -83.7144m  
    5.50000g      6.5971m    -14.0255m    986.1067m    -91.8886m  
    6.00000g      6.4921m    -15.3213m    984.9504m   -100.0249m  
    6.50000g      6.3792m    -16.6205m    983.7162m   -108.1226m  
    7.00000g      6.2580m    -17.9248m    982.4071m   -116.1813m  
    7.50000g      6.1276m    -19.2352m    981.0257m   -124.2009m  
    8.00000g      5.9870m    -20.5528m    979.5745m   -132.1814m  
    8.50000g      5.8352m    -21.8782m    978.0557m   -140.1231m  
    9.00000g      5.6708m    -23.2122m    976.4715m   -148.0265m  
    9.50000g      5.4925m    -24.5549m    974.8236m   -155.8920m  
   10.00000g      5.2991m    -25.9064m    973.1137m   -163.7202m  
   10.50000g      5.0891m    -27.2668m    971.3433m   -171.5117m  
   11.00000g      4.8614m    -28.6356m    969.5138m   -179.2671m  
   11.50000g      4.6148m    -30.0126m    967.6263m   -186.9869m  
   12.00000g      4.3482m    -31.3971m    965.6819m   -194.6719m  
   12.50000g      4.0605m    -32.7884m    963.6815m   -202.3226m  
   13.00000g      3.7508m    -34.1859m    961.6261m   -209.9396m  
   13.50000g      3.4182m    -35.5888m    959.5162m   -217.5234m  
   14.00000g      3.0621m    -36.9960m    957.3526m   -225.0746m  
   14.50000g      2.6819m    -38.4068m    955.1358m   -232.5936m  
   15.00000g      2.2769m    -39.8202m    952.8662m   -240.0809m  
   15.50000g      1.8468m    -41.2351m    950.5444m   -247.5369m  
   16.00000g      1.3911m    -42.6507m    948.1708m   -254.9620m  
   16.50000g    909.6461u    -44.0659m    945.7455m   -262.3564m  
   17.00000g    402.1729u    -45.4798m    943.2689m   -269.7205m  
   17.50000g   -131.4401u    -46.8915m    940.7412m   -277.0546m  
   18.00000g   -691.2628u    -48.2999m    938.1627m   -284.3588m  
   18.50000g     -1.2773m    -49.7042m    935.5336m   -291.6332m  
   19.00000g     -1.8895m    -51.1034m    932.8539m   -298.8781m  
   19.50000g     -2.5278m    -52.4968m    930.1238m   -306.0934m  
   20.00000g     -3.1921m    -53.8834m    927.3435m   -313.2793m  
   20.50000g     -3.8822m    -55.2625m    924.5130m   -320.4358m  
   21.00000g     -4.5978m    -56.6332m    921.6326m   -327.5628m  
   21.50000g     -5.3388m    -57.9948m    918.7021m   -334.6603m  
   22.00000g     -6.1048m    -59.3467m    915.7219m   -341.7283m  
   22.50000g     -6.8957m    -60.6880m    912.6919m   -348.7666m  
   23.00000g     -7.7110m    -62.0182m    909.6123m   -355.7751m  
   23.50000g     -8.5505m    -63.3365m    906.4832m   -362.7538m  
   24.00000g     -9.4138m    -64.6424m    903.3046m   -369.7023m  
   24.50000g    -10.3006m    -65.9353m    900.0766m   -376.6205m  
   25.00000g    -11.2104m    -67.2146m    896.7995m   -383.5082m  
   25.50000g    -12.1430m    -68.4798m    893.4732m   -390.3653m  
   26.00000g    -13.0978m    -69.7304m    890.0980m   -397.1914m  
   26.50000g    -14.0746m    -70.9658m    886.6739m   -403.9863m  
   27.00000g    -15.0729m    -72.1857m    883.2011m   -410.7497m  
   27.50000g    -16.0924m    -73.3895m    879.6798m   -417.4814m  
   28.00000g    -17.1325m    -74.5768m    876.1100m   -424.1810m  
   28.50000g    -18.1929m    -75.7472m    872.4920m   -430.8484m  
   29.00000g    -19.2732m    -76.9004m    868.8260m   -437.4831m  
   29.50000g    -20.3729m    -78.0359m    865.1121m   -444.0849m  
   30.00000g    -21.4916m    -79.1533m    861.3505m   -450.6535m  
   30.50000g    -22.6290m    -80.2524m    857.5415m   -457.1885m  
   31.00000g    -23.7845m    -81.3329m    853.6851m   -463.6897m  
   31.50000g    -24.9577m    -82.3943m    849.7818m   -470.1566m  
   32.00000g    -26.1483m    -83.4364m    845.8316m   -476.5890m  
   32.50000g    -27.3557m    -84.4588m    841.8349m   -482.9865m  
   33.00000g    -28.5796m    -85.4615m    837.7918m   -489.3489m  
   33.50000g    -29.8196m    -86.4439m    833.7027m   -495.6757m  
   34.00000g    -31.0751m    -87.4060m    829.5677m   -501.9666m  
   34.50000g    -32.3458m    -88.3474m    825.3872m   -508.2214m  
   35.00000g    -33.6313m    -89.2680m    821.1615m   -514.4396m  
   35.50000g    -34.9311m    -90.1675m    816.8908m   -520.6210m  
   36.00000g    -36.2449m    -91.0457m    812.5753m   -526.7652m  
   36.50000g    -37.5721m    -91.9024m    808.2156m   -532.8719m  
   37.00000g    -38.9123m    -92.7374m    803.8117m   -538.9408m  
   37.50000g    -40.2652m    -93.5505m    799.3641m   -544.9715m  
   38.00000g    -41.6303m    -94.3416m    794.8730m   -550.9638m  
   38.50000g    -43.0072m    -95.1105m    790.3388m   -556.9173m  
   39.00000g    -44.3955m    -95.8570m    785.7618m   -562.8316m  
   39.50000g    -45.7948m    -96.5811m    781.1424m   -568.7066m  
   40.00000g    -47.2046m    -97.2825m    776.4808m   -574.5418m  
   40.50000g    -48.6245m    -97.9611m    771.7775m   -580.3370m  
   41.00000g    -50.0542m    -98.6168m    767.0328m   -586.0920m  
   41.50000g    -51.4931m    -99.2495m    762.2469m   -591.8063m  
   42.00000g    -52.9410m    -99.8591m    757.4204m   -597.4797m  
   42.50000g    -54.3973m   -100.4454m    752.5535m   -603.1119m  
   43.00000g    -55.8617m   -101.0085m    747.6467m   -608.7027m  
   43.50000g    -57.3337m   -101.5481m    742.7002m   -614.2518m  
   44.00000g    -58.8130m   -102.0642m    737.7145m   -619.7588m  
   44.50000g    -60.2992m   -102.5568m    732.6900m   -625.2236m  
   45.00000g    -61.7918m   -103.0258m    727.6269m   -630.6458m  
   45.50000g    -63.2905m   -103.4711m    722.5258m   -636.0253m  
   46.00000g    -64.7947m   -103.8926m    717.3869m   -641.3617m  
   46.50000g    -66.3043m   -104.2904m    712.2107m   -646.6549m  
   47.00000g    -67.8186m   -104.6643m    706.9976m   -651.9045m  
   47.50000g    -69.3375m   -105.0144m    701.7479m   -657.1104m  
   48.00000g    -70.8603m   -105.3406m    696.4621m   -662.2722m  
   48.50000g    -72.3868m   -105.6429m    691.1405m   -667.3899m  
   49.00000g    -73.9166m   -105.9212m    685.7836m   -672.4631m  
   49.50000g    -75.4492m   -106.1757m    680.3917m   -677.4917m  
   50.00000g    -76.9844m   -106.4062m    674.9652m   -682.4754m  
   50.50000g    -78.5216m   -106.6127m    669.5046m   -687.4140m  
   51.00000g    -80.0605m   -106.7953m    664.0102m   -692.3073m  
   51.50000g    -81.6007m   -106.9541m    658.4824m   -697.1552m  
   52.00000g    -83.1419m   -107.0889m    652.9217m   -701.9574m  
   52.50000g    -84.6836m   -107.1998m    647.3285m   -706.7138m  
   53.00000g    -86.2255m   -107.2870m    641.7031m   -711.4241m  
   53.50000g    -87.7672m   -107.3503m    636.0460m   -716.0883m  
   54.00000g    -89.3083m   -107.3898m    630.3575m   -720.7060m  
   54.50000g    -90.8484m   -107.4057m    624.6382m   -725.2772m  
   55.00000g    -92.3873m   -107.3979m    618.8883m   -729.8017m  
   55.50000g    -93.9244m   -107.3664m    613.1083m   -734.2793m  
   56.00000g    -95.4595m   -107.3115m    607.2985m   -738.7099m  
   56.50000g    -96.9921m   -107.2331m    601.4595m   -743.0934m  
   57.00000g    -98.5220m   -107.1313m    595.5916m   -747.4295m  
   57.50000g   -100.0487m   -107.0061m    589.6952m   -751.7181m  
   58.00000g   -101.5719m   -106.8578m    583.7708m   -755.9592m  
   58.50000g   -103.0912m   -106.6863m    577.8186m   -760.1526m  
   59.00000g   -104.6063m   -106.4917m    571.8392m   -764.2981m  
   59.50000g   -106.1169m   -106.2742m    565.8329m   -768.3956m  
   60.00000g   -107.6225m   -106.0339m    559.8002m   -772.4450m  
   60.50000g   -109.1229m   -105.7708m    553.7413m   -776.4463m  
   61.00000g   -110.6176m   -105.4851m    547.6568m   -780.3992m  
   61.50000g   -112.1064m   -105.1769m    541.5471m   -784.3037m  
   62.00000g   -113.5889m   -104.8463m    535.4125m   -788.1597m  
   62.50000g   -115.0648m   -104.4935m    529.2534m   -791.9670m  
   63.00000g   -116.5337m   -104.1185m    523.0702m   -795.7257m  
   63.50000g   -117.9954m   -103.7216m    516.8634m   -799.4355m  
   64.00000g   -119.4494m   -103.3028m    510.6333m   -803.0964m  
   64.50000g   -120.8955m   -102.8624m    504.3803m   -806.7084m  
   65.00000g   -122.3334m   -102.4004m    498.1048m   -810.2713m  
   65.50000g   -123.7626m   -101.9170m    491.8072m   -813.7850m  
   66.00000g   -125.1830m   -101.4124m    485.4879m   -817.2496m  
   66.50000g   -126.5942m   -100.8867m    479.1472m   -820.6649m  
   67.00000g   -127.9958m   -100.3402m    472.7857m   -824.0308m  
   67.50000g   -129.3877m    -99.7729m    466.4035m   -827.3473m  
   68.00000g   -130.7694m    -99.1851m    460.0012m   -830.6144m  
   68.50000g   -132.1407m    -98.5769m    453.5791m   -833.8319m  
   69.00000g   -133.5013m    -97.9485m    447.1376m   -836.9998m  
   69.50000g   -134.8509m    -97.3001m    440.6771m   -840.1181m  
   70.00000g   -136.1891m    -96.6319m    434.1979m   -843.1868m  
   70.50000g   -137.5158m    -95.9441m    427.7005m   -846.2057m  
   71.00000g   -138.8307m    -95.2369m    421.1851m   -849.1748m  
   71.50000g   -140.1334m    -94.5106m    414.6522m   -852.0941m  
   72.00000g   -141.4237m    -93.7652m    408.1021m   -854.9636m  
   72.50000g   -142.7013m    -93.0010m    401.5353m   -857.7832m  
   73.00000g   -143.9659m    -92.2182m    394.9520m   -860.5529m  
   73.50000g   -145.2174m    -91.4171m    388.3526m   -863.2727m  
   74.00000g   -146.4553m    -90.5979m    381.7376m   -865.9425m  
   74.50000g   -147.6795m    -89.7607m    375.1072m   -868.5623m  
   75.00000g   -148.8897m    -88.9059m    368.4619m   -871.1321m  
   75.50000g   -150.0857m    -88.0336m    361.8019m   -873.6518m  
   76.00000g   -151.2672m    -87.1441m    355.1277m   -876.1215m  
   76.50000g   -152.4340m    -86.2376m    348.4395m   -878.5411m  
   77.00000g   -153.5859m    -85.3143m    341.7378m   -880.9107m  
   77.50000g   -154.7225m    -84.3746m    335.0229m   -883.2301m  
   78.00000g   -155.8437m    -83.4186m    328.2952m   -885.4994m  
   78.50000g   -156.9493m    -82.4466m    321.5549m   -887.7187m  
   79.00000g   -158.0389m    -81.4588m    314.8025m   -889.8878m  
   79.50000g   -159.1125m    -80.4555m    308.0383m   -892.0067m  
   80.00000g   -160.1698m    -79.4370m    301.2626m   -894.0756m  
   80.50000g   -161.2106m    -78.4035m    294.4757m   -896.0943m  
   81.00000g   -162.2347m    -77.3553m    287.6781m   -898.0629m  
   81.50000g   -163.2418m    -76.2927m    280.8700m   -899.9814m  
   82.00000g   -164.2319m    -75.2158m    274.0518m   -901.8497m  
   82.50000g   -165.2046m    -74.1250m    267.2238m   -903.6679m  
   83.00000g   -166.1598m    -73.0206m    260.3863m   -905.4360m  
   83.50000g   -167.0974m    -71.9028m    253.5397m   -907.1540m  
   84.00000g   -168.0171m    -70.7718m    246.6843m   -908.8219m  
   84.50000g   -168.9187m    -69.6281m    239.8204m   -910.4398m  
   85.00000g   -169.8022m    -68.4718m    232.9484m   -912.0075m  
   85.50000g   -170.6672m    -67.3033m    226.0686m   -913.5252m  
   86.00000g   -171.5137m    -66.1228m    219.1813m   -914.9928m  
   86.50000g   -172.3416m    -64.9306m    212.2868m   -916.4105m  
   87.00000g   -173.1505m    -63.7270m    205.3854m   -917.7780m  
   87.50000g   -173.9405m    -62.5122m    198.4775m   -919.0956m  
   88.00000g   -174.7113m    -61.2867m    191.5634m   -920.3633m  
   88.50000g   -175.4628m    -60.0506m    184.6433m   -921.5809m  
   89.00000g   -176.1949m    -58.8043m    177.7177m   -922.7486m  
   89.50000g   -176.9074m    -57.5481m    170.7868m   -923.8664m  
   90.00000g   -177.6002m    -56.2822m    163.8509m   -924.9343m  
   90.50000g   -178.2733m    -55.0070m    156.9104m   -925.9523m  
   91.00000g   -178.9263m    -53.7228m    149.9655m   -926.9205m  
   91.50000g   -179.5594m    -52.4298m    143.0165m   -927.8388m  
   92.00000g   -180.1722m    -51.1284m    136.0638m   -928.7073m  
   92.50000g   -180.7648m    -49.8188m    129.1077m   -929.5261m  
   93.00000g   -181.3370m    -48.5015m    122.1484m   -930.2950m  
   93.50000g   -181.8888m    -47.1766m    115.1864m   -931.0143m  
   94.00000g   -182.4200m    -45.8445m    108.2217m   -931.6839m  
   94.50000g   -182.9305m    -44.5055m    101.2549m   -932.3038m  
   95.00000g   -183.4203m    -43.1599m     94.2861m   -932.8740m  
   95.50000g   -183.8893m    -41.8080m     87.3157m   -933.3946m  
   96.00000g   -184.3374m    -40.4502m     80.3440m   -933.8657m  
   96.50000g   -184.7645m    -39.0867m     73.3712m   -934.2871m  
   97.00000g   -185.1706m    -37.7179m     66.3977m   -934.6591m  
   97.50000g   -185.5556m    -36.3440m     59.4237m   -934.9816m  
   98.00000g   -185.9195m    -34.9654m     52.4496m   -935.2546m  
   98.50000g   -186.2621m    -33.5824m     45.4756m   -935.4781m  
   99.00000g   -186.5835m    -32.1953m     38.5021m   -935.6523m  
   99.50000g   -186.8836m    -30.8045m     31.5293m   -935.7771m  
  100.00000g   -187.1624m    -29.4101m     24.5575m   -935.8526m  
y
x

        freq    s12          s12          s22          s22        
                   real         imag         real         imag    
  500.00000x    993.0578m     -8.7228m      6.7460m     -1.0287m  
    1.00000g    992.6783m    -17.2308m      6.9249m     -2.2554m  
    1.50000g    992.2614m    -25.6307m      7.0197m     -3.5720m  
    2.00000g    991.7929m    -33.9974m      7.0466m     -4.9016m  
    2.50000g    991.2485m    -42.3463m      7.0324m     -6.2243m  
    3.00000g    990.6165m    -50.6758m      6.9926m     -7.5376m  
    3.50000g    989.8931m    -58.9814m      6.9351m     -8.8429m  
    4.00000g    989.0782m    -67.2585m      6.8647m    -10.1423m  
    4.50000g    988.1737m    -75.5038m      6.7840m    -11.4378m  
    5.00000g    987.1822m    -83.7144m      6.6945m    -12.7316m  
    5.50000g    986.1067m    -91.8886m      6.5971m    -14.0255m  
    6.00000g    984.9504m   -100.0249m      6.4921m    -15.3213m  
    6.50000g    983.7162m   -108.1226m      6.3792m    -16.6205m  
    7.00000g    982.4071m   -116.1813m      6.2580m    -17.9248m  
    7.50000g    981.0257m   -124.2009m      6.1276m    -19.2352m  
    8.00000g    979.5745m   -132.1814m      5.9870m    -20.5528m  
    8.50000g    978.0557m   -140.1231m      5.8352m    -21.8782m  
    9.00000g    976.4715m   -148.0265m      5.6708m    -23.2122m  
    9.50000g    974.8236m   -155.8920m      5.4925m    -24.5549m  
   10.00000g    973.1137m   -163.7202m      5.2991m    -25.9064m  
   10.50000g    971.3433m   -171.5117m      5.0891m    -27.2668m  
   11.00000g    969.5138m   -179.2671m      4.8614m    -28.6356m  
   11.50000g    967.6263m   -186.9869m      4.6148m    -30.0126m  
   12.00000g    965.6819m   -194.6719m      4.3482m    -31.3971m  
   12.50000g    963.6815m   -202.3226m      4.0605m    -32.7884m  
   13.00000g    961.6261m   -209.9396m      3.7508m    -34.1859m  
   13.50000g    959.5162m   -217.5234m      3.4182m    -35.5888m  
   14.00000g    957.3526m   -225.0746m      3.0621m    -36.9960m  
   14.50000g    955.1358m   -232.5936m      2.6819m    -38.4068m  
   15.00000g    952.8662m   -240.0809m      2.2769m    -39.8202m  
   15.50000g    950.5444m   -247.5369m      1.8468m    -41.2351m  
   16.00000g    948.1708m   -254.9620m      1.3911m    -42.6507m  
   16.50000g    945.7455m   -262.3564m    909.6461u    -44.0659m  
   17.00000g    943.2689m   -269.7205m    402.1729u    -45.4798m  
   17.50000g    940.7412m   -277.0546m   -131.4401u    -46.8915m  
   18.00000g    938.1627m   -284.3588m   -691.2628u    -48.2999m  
   18.50000g    935.5336m   -291.6332m     -1.2773m    -49.7042m  
   19.00000g    932.8539m   -298.8781m     -1.8895m    -51.1034m  
   19.50000g    930.1238m   -306.0934m     -2.5278m    -52.4968m  
   20.00000g    927.3435m   -313.2793m     -3.1921m    -53.8834m  
   20.50000g    924.5130m   -320.4358m     -3.8822m    -55.2625m  
   21.00000g    921.6326m   -327.5628m     -4.5978m    -56.6332m  
   21.50000g    918.7021m   -334.6603m     -5.3388m    -57.9948m  
   22.00000g    915.7219m   -341.7283m     -6.1048m    -59.3467m  
   22.50000g    912.6919m   -348.7666m     -6.8957m    -60.6880m  
   23.00000g    909.6123m   -355.7751m     -7.7110m    -62.0182m  
   23.50000g    906.4832m   -362.7538m     -8.5505m    -63.3365m  
   24.00000g    903.3046m   -369.7023m     -9.4138m    -64.6424m  
   24.50000g    900.0766m   -376.6205m    -10.3006m    -65.9353m  
   25.00000g    896.7995m   -383.5082m    -11.2104m    -67.2146m  
   25.50000g    893.4732m   -390.3653m    -12.1430m    -68.4798m  
   26.00000g    890.0980m   -397.1914m    -13.0978m    -69.7304m  
   26.50000g    886.6739m   -403.9863m    -14.0746m    -70.9658m  
   27.00000g    883.2011m   -410.7497m    -15.0729m    -72.1857m  
   27.50000g    879.6798m   -417.4814m    -16.0924m    -73.3895m  
   28.00000g    876.1100m   -424.1810m    -17.1325m    -74.5768m  
   28.50000g    872.4920m   -430.8484m    -18.1929m    -75.7472m  
   29.00000g    868.8260m   -437.4831m    -19.2732m    -76.9004m  
   29.50000g    865.1121m   -444.0849m    -20.3729m    -78.0359m  
   30.00000g    861.3505m   -450.6535m    -21.4916m    -79.1533m  
   30.50000g    857.5415m   -457.1885m    -22.6290m    -80.2524m  
   31.00000g    853.6851m   -463.6897m    -23.7845m    -81.3329m  
   31.50000g    849.7818m   -470.1566m    -24.9577m    -82.3943m  
   32.00000g    845.8316m   -476.5890m    -26.1483m    -83.4364m  
   32.50000g    841.8349m   -482.9865m    -27.3557m    -84.4588m  
   33.00000g    837.7918m   -489.3489m    -28.5796m    -85.4615m  
   33.50000g    833.7027m   -495.6757m    -29.8196m    -86.4439m  
   34.00000g    829.5677m   -501.9666m    -31.0751m    -87.4060m  
   34.50000g    825.3872m   -508.2214m    -32.3458m    -88.3474m  
   35.00000g    821.1615m   -514.4396m    -33.6313m    -89.2680m  
   35.50000g    816.8908m   -520.6210m    -34.9311m    -90.1675m  
   36.00000g    812.5753m   -526.7652m    -36.2449m    -91.0457m  
   36.50000g    808.2156m   -532.8719m    -37.5721m    -91.9024m  
   37.00000g    803.8117m   -538.9408m    -38.9123m    -92.7374m  
   37.50000g    799.3641m   -544.9715m    -40.2652m    -93.5505m  
   38.00000g    794.8730m   -550.9638m    -41.6303m    -94.3416m  
   38.50000g    790.3388m   -556.9173m    -43.0072m    -95.1105m  
   39.00000g    785.7618m   -562.8316m    -44.3955m    -95.8570m  
   39.50000g    781.1424m   -568.7066m    -45.7948m    -96.5811m  
   40.00000g    776.4808m   -574.5418m    -47.2046m    -97.2825m  
   40.50000g    771.7775m   -580.3370m    -48.6245m    -97.9611m  
   41.00000g    767.0328m   -586.0920m    -50.0542m    -98.6168m  
   41.50000g    762.2469m   -591.8063m    -51.4931m    -99.2495m  
   42.00000g    757.4204m   -597.4797m    -52.9410m    -99.8591m  
   42.50000g    752.5535m   -603.1119m    -54.3973m   -100.4454m  
   43.00000g    747.6467m   -608.7027m    -55.8617m   -101.0085m  
   43.50000g    742.7002m   -614.2518m    -57.3337m   -101.5481m  
   44.00000g    737.7145m   -619.7588m    -58.8130m   -102.0642m  
   44.50000g    732.6900m   -625.2236m    -60.2992m   -102.5568m  
   45.00000g    727.6269m   -630.6458m    -61.7918m   -103.0258m  
   45.50000g    722.5258m   -636.0253m    -63.2905m   -103.4711m  
   46.00000g    717.3869m   -641.3617m    -64.7947m   -103.8926m  
   46.50000g    712.2107m   -646.6549m    -66.3043m   -104.2904m  
   47.00000g    706.9976m   -651.9045m    -67.8186m   -104.6643m  
   47.50000g    701.7479m   -657.1104m    -69.3375m   -105.0144m  
   48.00000g    696.4621m   -662.2722m    -70.8603m   -105.3406m  
   48.50000g    691.1405m   -667.3899m    -72.3868m   -105.6429m  
   49.00000g    685.7836m   -672.4631m    -73.9166m   -105.9212m  
   49.50000g    680.3917m   -677.4917m    -75.4492m   -106.1757m  
   50.00000g    674.9652m   -682.4754m    -76.9844m   -106.4062m  
   50.50000g    669.5046m   -687.4140m    -78.5216m   -106.6127m  
   51.00000g    664.0102m   -692.3073m    -80.0605m   -106.7953m  
   51.50000g    658.4824m   -697.1552m    -81.6007m   -106.9541m  
   52.00000g    652.9217m   -701.9574m    -83.1419m   -107.0889m  
   52.50000g    647.3285m   -706.7138m    -84.6836m   -107.1998m  
   53.00000g    641.7031m   -711.4241m    -86.2255m   -107.2870m  
   53.50000g    636.0460m   -716.0883m    -87.7672m   -107.3503m  
   54.00000g    630.3575m   -720.7060m    -89.3083m   -107.3898m  
   54.50000g    624.6382m   -725.2772m    -90.8484m   -107.4057m  
   55.00000g    618.8883m   -729.8017m    -92.3873m   -107.3979m  
   55.50000g    613.1083m   -734.2793m    -93.9244m   -107.3664m  
   56.00000g    607.2985m   -738.7099m    -95.4595m   -107.3115m  
   56.50000g    601.4595m   -743.0934m    -96.9921m   -107.2331m  
   57.00000g    595.5916m   -747.4295m    -98.5220m   -107.1313m  
   57.50000g    589.6952m   -751.7181m   -100.0487m   -107.0061m  
   58.00000g    583.7708m   -755.9592m   -101.5719m   -106.8578m  
   58.50000g    577.8186m   -760.1526m   -103.0912m   -106.6863m  
   59.00000g    571.8392m   -764.2981m   -104.6063m   -106.4917m  
   59.50000g    565.8329m   -768.3956m   -106.1169m   -106.2742m  
   60.00000g    559.8002m   -772.4450m   -107.6225m   -106.0339m  
   60.50000g    553.7413m   -776.4463m   -109.1229m   -105.7708m  
   61.00000g    547.6568m   -780.3992m   -110.6176m   -105.4851m  
   61.50000g    541.5471m   -784.3037m   -112.1064m   -105.1769m  
   62.00000g    535.4125m   -788.1597m   -113.5889m   -104.8463m  
   62.50000g    529.2534m   -791.9670m   -115.0648m   -104.4935m  
   63.00000g    523.0702m   -795.7257m   -116.5337m   -104.1185m  
   63.50000g    516.8634m   -799.4355m   -117.9954m   -103.7216m  
   64.00000g    510.6333m   -803.0964m   -119.4494m   -103.3028m  
   64.50000g    504.3803m   -806.7084m   -120.8955m   -102.8624m  
   65.00000g    498.1048m   -810.2713m   -122.3334m   -102.4004m  
   65.50000g    491.8072m   -813.7850m   -123.7626m   -101.9170m  
   66.00000g    485.4879m   -817.2496m   -125.1830m   -101.4124m  
   66.50000g    479.1472m   -820.6649m   -126.5942m   -100.8867m  
   67.00000g    472.7857m   -824.0308m   -127.9958m   -100.3402m  
   67.50000g    466.4035m   -827.3473m   -129.3877m    -99.7729m  
   68.00000g    460.0012m   -830.6144m   -130.7694m    -99.1851m  
   68.50000g    453.5791m   -833.8319m   -132.1407m    -98.5769m  
   69.00000g    447.1376m   -836.9998m   -133.5013m    -97.9485m  
   69.50000g    440.6771m   -840.1181m   -134.8509m    -97.3001m  
   70.00000g    434.1979m   -843.1868m   -136.1891m    -96.6319m  
   70.50000g    427.7005m   -846.2057m   -137.5158m    -95.9441m  
   71.00000g    421.1851m   -849.1748m   -138.8307m    -95.2369m  
   71.50000g    414.6522m   -852.0941m   -140.1334m    -94.5106m  
   72.00000g    408.1021m   -854.9636m   -141.4237m    -93.7652m  
   72.50000g    401.5353m   -857.7832m   -142.7013m    -93.0010m  
   73.00000g    394.9520m   -860.5529m   -143.9659m    -92.2182m  
   73.50000g    388.3526m   -863.2727m   -145.2174m    -91.4171m  
   74.00000g    381.7376m   -865.9425m   -146.4553m    -90.5979m  
   74.50000g    375.1072m   -868.5623m   -147.6795m    -89.7607m  
   75.00000g    368.4619m   -871.1321m   -148.8897m    -88.9059m  
   75.50000g    361.8019m   -873.6518m   -150.0857m    -88.0336m  
   76.00000g    355.1277m   -876.1215m   -151.2672m    -87.1441m  
   76.50000g    348.4395m   -878.5411m   -152.4340m    -86.2376m  
   77.00000g    341.7378m   -880.9107m   -153.5859m    -85.3143m  
   77.50000g    335.0229m   -883.2301m   -154.7225m    -84.3746m  
   78.00000g    328.2952m   -885.4994m   -155.8437m    -83.4186m  
   78.50000g    321.5549m   -887.7187m   -156.9493m    -82.4466m  
   79.00000g    314.8025m   -889.8878m   -158.0389m    -81.4588m  
   79.50000g    308.0383m   -892.0067m   -159.1125m    -80.4555m  
   80.00000g    301.2626m   -894.0756m   -160.1698m    -79.4370m  
   80.50000g    294.4757m   -896.0943m   -161.2106m    -78.4035m  
   81.00000g    287.6781m   -898.0629m   -162.2347m    -77.3553m  
   81.50000g    280.8700m   -899.9814m   -163.2418m    -76.2927m  
   82.00000g    274.0518m   -901.8497m   -164.2319m    -75.2158m  
   82.50000g    267.2238m   -903.6679m   -165.2046m    -74.1250m  
   83.00000g    260.3863m   -905.4360m   -166.1598m    -73.0206m  
   83.50000g    253.5397m   -907.1540m   -167.0974m    -71.9028m  
   84.00000g    246.6843m   -908.8219m   -168.0171m    -70.7718m  
   84.50000g    239.8204m   -910.4398m   -168.9187m    -69.6281m  
   85.00000g    232.9484m   -912.0075m   -169.8022m    -68.4718m  
   85.50000g    226.0686m   -913.5252m   -170.6672m    -67.3033m  
   86.00000g    219.1813m   -914.9928m   -171.5137m    -66.1228m  
   86.50000g    212.2868m   -916.4105m   -172.3416m    -64.9306m  
   87.00000g    205.3854m   -917.7780m   -173.1505m    -63.7270m  
   87.50000g    198.4775m   -919.0956m   -173.9405m    -62.5122m  
   88.00000g    191.5634m   -920.3633m   -174.7113m    -61.2867m  
   88.50000g    184.6433m   -921.5809m   -175.4628m    -60.0506m  
   89.00000g    177.7177m   -922.7486m   -176.1949m    -58.8043m  
   89.50000g    170.7868m   -923.8664m   -176.9074m    -57.5481m  
   90.00000g    163.8509m   -924.9343m   -177.6002m    -56.2822m  
   90.50000g    156.9104m   -925.9523m   -178.2733m    -55.0070m  
   91.00000g    149.9655m   -926.9205m   -178.9263m    -53.7228m  
   91.50000g    143.0165m   -927.8388m   -179.5594m    -52.4298m  
   92.00000g    136.0638m   -928.7073m   -180.1722m    -51.1284m  
   92.50000g    129.1077m   -929.5261m   -180.7648m    -49.8188m  
   93.00000g    122.1484m   -930.2950m   -181.3370m    -48.5015m  
   93.50000g    115.1864m   -931.0143m   -181.8888m    -47.1766m  
   94.00000g    108.2217m   -931.6839m   -182.4200m    -45.8445m  
   94.50000g    101.2549m   -932.3038m   -182.9305m    -44.5055m  
   95.00000g     94.2861m   -932.8740m   -183.4203m    -43.1599m  
   95.50000g     87.3157m   -933.3946m   -183.8893m    -41.8080m  
   96.00000g     80.3440m   -933.8657m   -184.3374m    -40.4502m  
   96.50000g     73.3712m   -934.2871m   -184.7645m    -39.0867m  
   97.00000g     66.3977m   -934.6591m   -185.1706m    -37.7179m  
   97.50000g     59.4237m   -934.9816m   -185.5556m    -36.3440m  
   98.00000g     52.4496m   -935.2546m   -185.9195m    -34.9654m  
   98.50000g     45.4756m   -935.4781m   -186.2621m    -33.5824m  
   99.00000g     38.5021m   -935.6523m   -186.5835m    -32.1953m  
   99.50000g     31.5293m   -935.7771m   -186.8836m    -30.8045m  
  100.00000g     24.5575m   -935.8526m   -187.1624m    -29.4101m  
y

          ***** job concluded
1****** HSPICE -- C-2009.09 32-BIT (Aug 24 2009) winnt ******                   
 ******  
 .title test_cpw

  ******  job statistics summary tnom=  25.000 temp=  27.000 *****

  ******  HSPICE Threads Information  ******

  Command Line Threads Count                  :     1
  Available CPU Count                         :     4
  Actual Model Evaluation(Load) Threads Count :     1
  Actual Solver Threads Count                 :     1


  ******  Circuit Statistics  ******
  # nodes       =      85 # elements   =     170
  # resistors   =      84 # capacitors =      44 # inductors   =      40
  # mutual_inds =       0 # vccs       =       0 # vcvs        =       0
  # cccs        =       0 # ccvs       =       0 # volt_srcs   =       0
  # curr_srcs   =       0 # diodes     =       0 # bjts        =       0
  # jfets       =       0 # mosfets    =       0 # U elements  =       0
  # T elements  =       0 # W elements =       0 # B elements  =       0
  # S elements  =       0 # P elements =       2 # va device   =       0


  ******  Runtime Statistics (seconds)  ******

  analysis           time    # points   tot. iter  conv.iter
  op point           0.00           1           3
  ac analysis        0.03         200         200
  readin             0.05
  errchk             0.00
  setup              0.01
  output             0.00


           total memory used          376  kbytes
           total cpu time            0.11 seconds
           total elapsed time        0.14 seconds
           job started at     18:52:16 02/20/2017
           job ended   at     18:52:17 02/20/2017


  lic: Release hspice token(s) 
