 ****** HSPICE -- C-2009.09 32-BIT (Aug 24 2009) winnt ******                   
  Copyright (C) 2009 Synopsys, Inc. All Rights Reserved.                        
  Unpublished-rights reserved under US copyright laws.
  This program is protected by law and is subject to the 
  terms and conditions of the license agreement from Synopsys.
  Use of this program is your acceptance to be bound by the 
  license agreement. HSPICE is the trademark of Synopsys, Inc.
  Input File: E:\microstrip_modeling\Modeling_of_CPW_v11(2-D-SVDfit)\hspice_proj
  lic:  
  lic: FLEXlm: v8.5b 
  lic: USER:   MY                   HOSTNAME: MY-PC 
  lic: HOSTID: "22104182b4cb b0104182b4cb b083fe554343 b0104182b4cc 005056c00001
  
  lic: Using FLEXlm license file: 
  lic: 27000@localhost 
  lic: Checkout 1 hspice 
  lic: License/Maintenance for hspice will expire on 31-dec-2028/2008.120 
  lic: FLOATING license(s) on SERVER localhost 
  lic:   
 Init: read install configuration file: D:\synopsys\Hspice_C-2009.09\meta.cfg



 **** List of Port Elements
Port Number     Mode        Zo       DC bias
     1         single    ( 50.0    ,0.0)    0.00    
     2         single    ( 50.0    ,0.0)    0.00    
 
      
 *****************************************************************
 ******  option summary
 ******
 runlvl  = 6         bypass  = 2         



 **** List of Port Elements
Port Number     Mode        Zo       DC bias
     1         single    ( 50.0    ,0.0)    0.00    
     2         single    ( 50.0    ,0.0)    0.00    
1****** HSPICE -- C-2009.09 32-BIT (Aug 24 2009) winnt ******                   
 ******  
 .title test_unit_sparam

  ******  operating point information tnom=  25.000 temp=  27.000 *****
 ***** operating point status is all       simulation time is     0.     
    node    =voltage      node    =voltage      node    =voltage

 +0:a       =   0.      0:b       =   0.      0:c       =   0.     


 ****  port elements

 subckt                        
 element  0:p1       0:p2      
  volts      0.         0.     
  current    0.         0.     
  power      0.         0.     


     total port element power dissipation=    0.            watts

 **** resistors

 subckt                        
 element  0:rg       0:r1      
  r value    2.5800     5.4340k
  v drop     0.         0.     
  current    0.         0.     
  power      0.         0.     

 ******  
 .title test_unit_sparam

  ******  ac analysis tnom=  25.000 temp=  27.000 *****
x

        freq    s11          s11          s21          s21        
                   real         imag         real         imag    
  500.00000x    982.2795m      3.0107m    236.8706u   -467.9581u  
    1.00000g    983.6567m      5.5586m      7.7563u   -293.7237u  
    1.50000g    985.5330m      7.3826m    -43.5167u   -185.7579u  
    2.00000g    987.5365m      8.4811m    -54.1894u   -123.1121u  
    2.50000g    989.4204m      8.9993m    -52.8095u    -84.6104u  
    3.00000g    991.0702m      9.1154m    -47.7560u    -59.9060u  
    3.50000g    992.4597m      8.9799m    -41.9615u    -43.5306u  
    4.00000g    993.6075m      8.7007m    -36.4807u    -32.3752u  
    4.50000g    994.5481m      8.3481m    -31.6457u    -24.5875u  
    5.00000g    995.3180m      7.9658m    -27.5047u    -19.0280u  
    5.50000g    995.9501m      7.5794m    -24.0017u    -14.9768u  
    6.00000g    996.4718m      7.2033m    -21.0494u    -11.9688u  
    6.50000g    996.9052m      6.8451m    -18.5594u     -9.6966u  
    7.00000g    997.2676m      6.5083m    -16.4528u     -7.9530u  
    7.50000g    997.5729m      6.1941m    -14.6624u     -6.5958u  
    8.00000g    997.8319m      5.9021m    -13.1331u     -5.5254u  
    8.50000g    998.0530m      5.6313m    -11.8197u     -4.6711u  
    9.00000g    998.2431m      5.3805m    -10.6857u     -3.9817u  
    9.50000g    998.4074m      5.1482m     -9.7013u     -3.4199u  
   10.00000g    998.5504m      4.9328m     -8.8424u     -2.9578u  
   10.50000g    998.6754m      4.7329m     -8.0893u     -2.5744u  
   11.00000g    998.7852m      4.5471m     -7.4259u     -2.2538u  
   11.50000g    998.8822m      4.3742m     -6.8389u     -1.9839u  
   12.00000g    998.9683m      4.2130m     -6.3172u     -1.7550u  
   12.50000g    999.0449m      4.0625m     -5.8518u     -1.5597u  
   13.00000g    999.1135m      3.9217m     -5.4350u     -1.3922u  
   13.50000g    999.1750m      3.7899m     -5.0604u     -1.2477u  
   14.00000g    999.2304m      3.6662m     -4.7226u     -1.1223u  
   14.50000g    999.2805m      3.5499m     -4.4171u     -1.0131u  
   15.00000g    999.3260m      3.4405m     -4.1398u   -917.5572n  
   15.50000g    999.3673m      3.3373m     -3.8875u   -833.5826n  
   16.00000g    999.4049m      3.2399m     -3.6573u   -759.4987n  
   16.50000g    999.4393m      3.1479m     -3.4467u   -693.8981n  
   17.00000g    999.4709m      3.0607m     -3.2535u   -635.6059n  
   17.50000g    999.4999m      2.9782m     -3.0760u   -583.6365n  
   18.00000g    999.5266m      2.8998m     -2.9125u   -537.1587n  
   18.50000g    999.5512m      2.8253m     -2.7616u   -495.4688n  
   19.00000g    999.5740m      2.7545m     -2.6220u   -457.9681n  
   19.50000g    999.5950m      2.6871m     -2.4927u   -424.1451n  
   20.00000g    999.6146m      2.6228m     -2.3726u   -393.5613n  
   20.50000g    999.6328m      2.5614m     -2.2609u   -365.8393n  
   21.00000g    999.6498m      2.5028m     -2.1568u   -340.6531n  
   21.50000g    999.6656m      2.4467m     -2.0598u   -317.7201n  
   22.00000g    999.6803m      2.3931m     -1.9691u   -296.7945n  
   22.50000g    999.6941m      2.3417m     -1.8842u   -277.6620n  
   23.00000g    999.7071m      2.2925m     -1.8046u   -260.1350n  
   23.50000g    999.7192m      2.2452m     -1.7300u   -244.0491n  
   24.00000g    999.7306m      2.1998m     -1.6599u   -229.2595n  
   24.50000g    999.7414m      2.1562m     -1.5939u   -215.6384n  
   25.00000g    999.7515m      2.1143m     -1.5318u   -203.0731n  
   25.50000g    999.7610m      2.0739m     -1.4732u   -191.4632n  
   26.00000g    999.7700m      2.0351m     -1.4179u   -180.7200n  
   26.50000g    999.7785m      1.9976m     -1.3656u   -170.7642n  
   27.00000g    999.7865m      1.9615m     -1.3162u   -161.5250n  
   27.50000g    999.7941m      1.9266m     -1.2694u   -152.9393n  
   28.00000g    999.8013m      1.8930m     -1.2250u   -144.9504n  
   28.50000g    999.8082m      1.8605m     -1.1829u   -137.5075n  
   29.00000g    999.8147m      1.8291m     -1.1429u   -130.5646n  
   29.50000g    999.8208m      1.7987m     -1.1049u   -124.0807n  
   30.00000g    999.8267m      1.7693m     -1.0688u   -118.0184n  
   30.50000g    999.8323m      1.7408m     -1.0344u   -112.3442n  
   31.00000g    999.8376m      1.7132m     -1.0017u   -107.0274n  
   31.50000g    999.8427m      1.6865m   -970.4293n   -102.0404n  
   32.00000g    999.8475m      1.6606m   -940.6279n    -97.3580n  
   32.50000g    999.8521m      1.6355m   -912.1744n    -92.9575n  
   33.00000g    999.8565m      1.6111m   -884.9888n    -88.8178n  
   33.50000g    999.8607m      1.5874m   -858.9972n    -84.9201n  
   34.00000g    999.8648m      1.5644m   -834.1309n    -81.2468n  
   34.50000g    999.8686m      1.5421m   -810.3260n    -77.7822n  
   35.00000g    999.8723m      1.5204m   -787.5231n    -74.5115n  
   35.50000g    999.8759m      1.4992m   -765.6669n    -71.4215n  
   36.00000g    999.8793m      1.4787m   -744.7058n    -68.4998n  
   36.50000g    999.8826m      1.4587m   -724.5918n    -65.7351n  
   37.00000g    999.8857m      1.4392m   -705.2799n    -63.1171n  
   37.50000g    999.8887m      1.4203m   -686.7281n    -60.6362n  
   38.00000g    999.8916m      1.4018m   -668.8972n    -58.2835n  
   38.50000g    999.8944m      1.3838m   -651.7503n    -56.0508n  
   39.00000g    999.8970m      1.3663m   -635.2530n    -53.9306n  
   39.50000g    999.8996m      1.3492m   -619.3729n    -51.9159n  
   40.00000g    999.9021m      1.3325m   -604.0797n    -50.0002n  
   40.50000g    999.9045m      1.3162m   -589.3450n    -48.1776n  
   41.00000g    999.9068m      1.3003m   -575.1418n    -46.4424n  
   41.50000g    999.9090m      1.2848m   -561.4449n    -44.7895n  
   42.00000g    999.9112m      1.2697m   -548.2307n    -43.2140n  
   42.50000g    999.9132m      1.2549m   -535.4768n    -41.7115n  
   43.00000g    999.9152m      1.2404m   -523.1620n    -40.2778n  
   43.50000g    999.9172m      1.2263m   -511.2665n    -38.9090n  
   44.00000g    999.9190m      1.2125m   -499.7714n    -37.6015n  
   44.50000g    999.9208m      1.1990m   -488.6591n    -36.3519n  
   45.00000g    999.9226m      1.1858m   -477.9127n    -35.1570n  
   45.50000g    999.9242m      1.1729m   -467.5164n    -34.0139n  
   46.00000g    999.9259m      1.1602m   -457.4552n    -32.9197n  
   46.50000g    999.9275m      1.1478m   -447.7148n    -31.8720n  
   47.00000g    999.9290m      1.1357m   -438.2817n    -30.8682n  
   47.50000g    999.9305m      1.1239m   -429.1433n    -29.9062n  
   48.00000g    999.9319m      1.1122m   -420.2873n    -28.9836n  
   48.50000g    999.9333m      1.1009m   -411.7023n    -28.0986n  
   49.00000g    999.9346m      1.0897m   -403.3773n    -27.2492n  
   49.50000g    999.9360m      1.0788m   -395.3019n    -26.4338n  
   50.00000g    999.9372m      1.0681m   -387.4664n    -25.6505n  
   50.50000g    999.9385m      1.0576m   -379.8612n    -24.8978n  
   51.00000g    999.9397m      1.0473m   -372.4774n    -24.1743n  
   51.50000g    999.9408m      1.0372m   -365.3067n    -23.4785n  
   52.00000g    999.9419m      1.0272m   -358.3407n    -22.8092n  
   52.50000g    999.9430m      1.0175m   -351.5719n    -22.1650n  
   53.00000g    999.9441m      1.0080m   -344.9929n    -21.5449n  
   53.50000g    999.9451m    998.6230u   -338.5966n    -20.9477n  
   54.00000g    999.9462m    989.4313u   -332.3764n    -20.3723n  
   54.50000g    999.9471m    980.4069u   -326.3258n    -19.8178n  
   55.00000g    999.9481m    971.5451u   -320.4388n    -19.2833n  
   55.50000g    999.9490m    962.8416u   -314.7095n    -18.7678n  
   56.00000g    999.9499m    954.2922u   -309.1323n    -18.2705n  
   56.50000g    999.9508m    945.8929u   -303.7019n    -17.7906n  
   57.00000g    999.9517m    937.6398u   -298.4133n    -17.3273n  
   57.50000g    999.9525m    929.5291u   -293.2614n    -16.8800n  
   58.00000g    999.9533m    921.5571u   -288.2417n    -16.4479n  
   58.50000g    999.9541m    913.7204u   -283.3496n    -16.0305n  
   59.00000g    999.9549m    906.0154u   -278.5810n    -15.6271n  
   59.50000g    999.9556m    898.4391u   -273.9316n    -15.2371n  
   60.00000g    999.9564m    890.9881u   -269.3975n    -14.8599n  
   60.50000g    999.9571m    883.6593u   -264.9750n    -14.4951n  
   61.00000g    999.9578m    876.4499u   -260.6603n    -14.1421n  
   61.50000g    999.9585m    869.3569u   -256.4502n    -13.8005n  
   62.00000g    999.9591m    862.3775u   -252.3411n    -13.4698n  
   62.50000g    999.9598m    855.5091u   -248.3299n    -13.1496n  
   63.00000g    999.9604m    848.7489u   -244.4136n    -12.8394n  
   63.50000g    999.9610m    842.0945u   -240.5890n    -12.5390n  
   64.00000g    999.9616m    835.5434u   -236.8535n    -12.2478n  
   64.50000g    999.9622m    829.0933u   -233.2043n    -11.9656n  
   65.00000g    999.9628m    822.7418u   -229.6386n    -11.6919n  
   65.50000g    999.9634m    816.4866u   -226.1541n    -11.4266n  
   66.00000g    999.9639m    810.3257u   -222.7482n    -11.1692n  
   66.50000g    999.9645m    804.2569u   -219.4186n    -10.9195n  
   67.00000g    999.9650m    798.2781u   -216.1631n    -10.6771n  
   67.50000g    999.9655m    792.3874u   -212.9794n    -10.4419n  
   68.00000g    999.9660m    786.5828u   -209.8655n    -10.2136n  
   68.50000g    999.9665m    780.8625u   -206.8194n     -9.9918n  
   69.00000g    999.9670m    775.2246u   -203.8390n     -9.7764n  
   69.50000g    999.9675m    769.6675u   -200.9226n     -9.5672n  
   70.00000g    999.9679m    764.1892u   -198.0683n     -9.3639n  
   70.50000g    999.9684m    758.7883u   -195.2743n     -9.1663n  
   71.00000g    999.9688m    753.4631u   -192.5390n     -8.9742n  
   71.50000g    999.9692m    748.2120u   -189.8607n     -8.7875n  
   72.00000g    999.9697m    743.0334u   -187.2379n     -8.6059n  
   72.50000g    999.9701m    737.9259u   -184.6691n     -8.4292n  
   73.00000g    999.9705m    732.8880u   -182.1527n     -8.2574n  
   73.50000g    999.9709m    727.9183u   -179.6873n     -8.0902n  
   74.00000g    999.9713m    723.0155u   -177.2717n     -7.9275n  
   74.50000g    999.9717m    718.1782u   -174.9044n     -7.7691n  
   75.00000g    999.9720m    713.4051u   -172.5842n     -7.6149n  
   75.50000g    999.9724m    708.6949u   -170.3098n     -7.4648n  
   76.00000g    999.9728m    704.0464u   -168.0801n     -7.3186n  
   76.50000g    999.9731m    699.4584u   -165.8938n     -7.1762n  
   77.00000g    999.9735m    694.9297u   -163.7499n     -7.0374n  
   77.50000g    999.9738m    690.4592u   -161.6473n     -6.9022n  
   78.00000g    999.9742m    686.0457u   -159.5848n     -6.7704n  
   78.50000g    999.9745m    681.6883u   -157.5616n     -6.6420n  
   79.00000g    999.9748m    677.3858u   -155.5766n     -6.5168n  
   79.50000g    999.9751m    673.1371u   -153.6289n     -6.3947n  
   80.00000g    999.9754m    668.9414u   -151.7175n     -6.2757n  
   80.50000g    999.9757m    664.7976u   -149.8415n     -6.1596n  
   81.00000g    999.9760m    660.7047u   -148.0001n     -6.0463n  
   81.50000g    999.9763m    656.6619u   -146.1924n     -5.9358n  
   82.00000g    999.9766m    652.6681u   -144.4176n     -5.8280n  
   82.50000g    999.9769m    648.7226u   -142.6749n     -5.7228n  
   83.00000g    999.9772m    644.8245u   -140.9635n     -5.6200n  
   83.50000g    999.9774m    640.9728u   -139.2828n     -5.5198n  
   84.00000g    999.9777m    637.1669u   -137.6319n     -5.4219n  
   84.50000g    999.9780m    633.4058u   -136.0102n     -5.3263n  
   85.00000g    999.9782m    629.6888u   -134.4169n     -5.2329n  
   85.50000g    999.9785m    626.0151u   -132.8515n     -5.1417n  
   86.00000g    999.9787m    622.3840u   -131.3133n     -5.0526n  
   86.50000g    999.9790m    618.7947u   -129.8016n     -4.9656n  
   87.00000g    999.9792m    615.2466u   -128.3158n     -4.8805n  
   87.50000g    999.9795m    611.7388u   -126.8554n     -4.7974n  
   88.00000g    999.9797m    608.2708u   -125.4198n     -4.7161n  
   88.50000g    999.9799m    604.8418u   -124.0084n     -4.6367n  
   89.00000g    999.9801m    601.4513u   -122.6207n     -4.5591n  
   89.50000g    999.9804m    598.0985u   -121.2562n     -4.4831n  
   90.00000g    999.9806m    594.7828u   -119.9143n     -4.4089n  
   90.50000g    999.9808m    591.5037u   -118.5945n     -4.3363n  
   91.00000g    999.9810m    588.2604u   -117.2964n     -4.2652n  
   91.50000g    999.9812m    585.0525u   -116.0195n     -4.1957n  
   92.00000g    999.9814m    581.8794u   -114.7633n     -4.1277n  
   92.50000g    999.9816m    578.7405u   -113.5274n     -4.0612n  
   93.00000g    999.9818m    575.6352u   -112.3113n     -3.9961n  
   93.50000g    999.9820m    572.5630u   -111.1147n     -3.9324n  
   94.00000g    999.9822m    569.5234u   -109.9371n     -3.8700n  
   94.50000g    999.9824m    566.5159u   -108.7781n     -3.8089n  
   95.00000g    999.9826m    563.5400u   -107.6373n     -3.7492n  
   95.50000g    999.9827m    560.5951u   -106.5144n     -3.6906n  
   96.00000g    999.9829m    557.6808u   -105.4089n     -3.6333n  
   96.50000g    999.9831m    554.7966u   -104.3206n     -3.5771n  
   97.00000g    999.9833m    551.9421u   -103.2490n     -3.5221n  
   97.50000g    999.9834m    549.1168u   -102.1938n     -3.4683n  
   98.00000g    999.9836m    546.3202u   -101.1548n     -3.4155n  
   98.50000g    999.9838m    543.5520u   -100.1315n     -3.3638n  
   99.00000g    999.9839m    540.8116u    -99.1236n     -3.3131n  
   99.50000g    999.9841m    538.0987u    -98.1309n     -3.2634n  
  100.00000g    999.9843m    535.4129u    -97.1530n     -3.2147n  
y
x

        freq    s12          s12          s22          s22        
                   real         imag         real         imag    
  500.00000x    236.8706u   -467.9581u   -965.2874m    -46.9054m  
    1.00000g      7.7563u   -293.7237u   -988.1869m    -31.9261m  
    1.50000g    -43.5167u   -185.7579u   -994.3736m    -22.8101m  
    2.00000g    -54.1894u   -123.1121u   -996.7539m    -17.5479m  
    2.50000g    -52.8095u    -84.6104u   -997.8976m    -14.2075m  
    3.00000g    -47.7560u    -59.9060u   -998.5304m    -11.9176m  
    3.50000g    -41.9615u    -43.5306u   -998.9160m    -10.2558m  
    4.00000g    -36.4807u    -32.3752u   -999.1680m     -8.9971m  
    4.50000g    -31.6457u    -24.5875u   -999.3414m     -8.0116m  
    5.00000g    -27.5047u    -19.0280u   -999.4659m     -7.2197m  
    5.50000g    -24.0017u    -14.9768u   -999.5582m     -6.5695m  
    6.00000g    -21.0494u    -11.9688u   -999.6285m     -6.0264m  
    6.50000g    -18.5594u     -9.6966u   -999.6833m     -5.5659m  
    7.00000g    -16.4528u     -7.9530u   -999.7268m     -5.1707m  
    7.50000g    -14.6624u     -6.5958u   -999.7619m     -4.8277m  
    8.00000g    -13.1331u     -5.5254u   -999.7907m     -4.5273m  
    8.50000g    -11.8197u     -4.6711u   -999.8145m     -4.2620m  
    9.00000g    -10.6857u     -3.9817u   -999.8345m     -4.0260m  
    9.50000g     -9.7013u     -3.4199u   -999.8515m     -3.8148m  
   10.00000g     -8.8424u     -2.9578u   -999.8659m     -3.6246m  
   10.50000g     -8.0893u     -2.5744u   -999.8784m     -3.4524m  
   11.00000g     -7.4259u     -2.2538u   -999.8892m     -3.2959m  
   11.50000g     -6.8389u     -1.9839u   -999.8986m     -3.1529m  
   12.00000g     -6.3172u     -1.7550u   -999.9069m     -3.0217m  
   12.50000g     -5.8518u     -1.5597u   -999.9142m     -2.9011m  
   13.00000g     -5.4350u     -1.3922u   -999.9206m     -2.7897m  
   13.50000g     -5.0604u     -1.2477u   -999.9264m     -2.6865m  
   14.00000g     -4.7226u     -1.1223u   -999.9316m     -2.5907m  
   14.50000g     -4.4171u     -1.0131u   -999.9362m     -2.5015m  
   15.00000g     -4.1398u   -917.5572n   -999.9404m     -2.4182m  
   15.50000g     -3.8875u   -833.5826n   -999.9442m     -2.3403m  
   16.00000g     -3.6573u   -759.4987n   -999.9476m     -2.2672m  
   16.50000g     -3.4467u   -693.8981n   -999.9507m     -2.1986m  
   17.00000g     -3.2535u   -635.6059n   -999.9536m     -2.1340m  
   17.50000g     -3.0760u   -583.6365n   -999.9562m     -2.0731m  
   18.00000g     -2.9125u   -537.1587n   -999.9586m     -2.0156m  
   18.50000g     -2.7616u   -495.4688n   -999.9608m     -1.9611m  
   19.00000g     -2.6220u   -457.9681n   -999.9628m     -1.9096m  
   19.50000g     -2.4927u   -424.1451n   -999.9647m     -1.8606m  
   20.00000g     -2.3726u   -393.5613n   -999.9665m     -1.8141m  
   20.50000g     -2.2609u   -365.8393n   -999.9681m     -1.7699m  
   21.00000g     -2.1568u   -340.6531n   -999.9696m     -1.7278m  
   21.50000g     -2.0598u   -317.7201n   -999.9710m     -1.6877m  
   22.00000g     -1.9691u   -296.7945n   -999.9723m     -1.6493m  
   22.50000g     -1.8842u   -277.6620n   -999.9735m     -1.6127m  
   23.00000g     -1.8046u   -260.1350n   -999.9746m     -1.5777m  
   23.50000g     -1.7300u   -244.0491n   -999.9757m     -1.5441m  
   24.00000g     -1.6599u   -229.2595n   -999.9767m     -1.5119m  
   24.50000g     -1.5939u   -215.6384n   -999.9776m     -1.4811m  
   25.00000g     -1.5318u   -203.0731n   -999.9785m     -1.4515m  
   25.50000g     -1.4732u   -191.4632n   -999.9794m     -1.4230m  
   26.00000g     -1.4179u   -180.7200n   -999.9801m     -1.3957m  
   26.50000g     -1.3656u   -170.7642n   -999.9809m     -1.3694m  
   27.00000g     -1.3162u   -161.5250n   -999.9816m     -1.3440m  
   27.50000g     -1.2694u   -152.9393n   -999.9823m     -1.3196m  
   28.00000g     -1.2250u   -144.9504n   -999.9829m     -1.2960m  
   28.50000g     -1.1829u   -137.5075n   -999.9835m     -1.2733m  
   29.00000g     -1.1429u   -130.5646n   -999.9840m     -1.2514m  
   29.50000g     -1.1049u   -124.0807n   -999.9846m     -1.2302m  
   30.00000g     -1.0688u   -118.0184n   -999.9851m     -1.2097m  
   30.50000g     -1.0344u   -112.3442n   -999.9856m     -1.1898m  
   31.00000g     -1.0017u   -107.0274n   -999.9860m     -1.1707m  
   31.50000g   -970.4293n   -102.0404n   -999.9865m     -1.1521m  
   32.00000g   -940.6279n    -97.3580n   -999.9869m     -1.1341m  
   32.50000g   -912.1744n    -92.9575n   -999.9873m     -1.1166m  
   33.00000g   -884.9888n    -88.8178n   -999.9877m     -1.0997m  
   33.50000g   -858.9972n    -84.9201n   -999.9880m     -1.0833m  
   34.00000g   -834.1309n    -81.2468n   -999.9884m     -1.0674m  
   34.50000g   -810.3260n    -77.7822n   -999.9887m     -1.0519m  
   35.00000g   -787.5231n    -74.5115n   -999.9890m     -1.0369m  
   35.50000g   -765.6669n    -71.4215n   -999.9893m     -1.0223m  
   36.00000g   -744.7058n    -68.4998n   -999.9896m     -1.0081m  
   36.50000g   -724.5918n    -65.7351n   -999.9899m   -994.2904u  
   37.00000g   -705.2799n    -63.1171n   -999.9902m   -980.8567u  
   37.50000g   -686.7281n    -60.6362n   -999.9905m   -967.7812u  
   38.00000g   -668.8972n    -58.2835n   -999.9907m   -955.0496u  
   38.50000g   -651.7503n    -56.0508n   -999.9909m   -942.6487u  
   39.00000g   -635.2530n    -53.9306n   -999.9912m   -930.5656u  
   39.50000g   -619.3729n    -51.9159n   -999.9914m   -918.7884u  
   40.00000g   -604.0797n    -50.0002n   -999.9916m   -907.3055u  
   40.50000g   -589.3450n    -48.1776n   -999.9918m   -896.1061u  
   41.00000g   -575.1418n    -46.4424n   -999.9920m   -885.1797u  
   41.50000g   -561.4449n    -44.7895n   -999.9922m   -874.5166u  
   42.00000g   -548.2307n    -43.2140n   -999.9924m   -864.1073u  
   42.50000g   -535.4768n    -41.7115n   -999.9926m   -853.9429u  
   43.00000g   -523.1620n    -40.2778n   -999.9927m   -844.0148u  
   43.50000g   -511.2665n    -38.9090n   -999.9929m   -834.3149u  
   44.00000g   -499.7714n    -37.6015n   -999.9931m   -824.8354u  
   44.50000g   -488.6591n    -36.3519n   -999.9932m   -815.5689u  
   45.00000g   -477.9127n    -35.1570n   -999.9934m   -806.5082u  
   45.50000g   -467.5164n    -34.0139n   -999.9935m   -797.6466u  
   46.00000g   -457.4552n    -32.9197n   -999.9937m   -788.9777u  
   46.50000g   -447.7148n    -31.8720n   -999.9938m   -780.4951u  
   47.00000g   -438.2817n    -30.8682n   -999.9939m   -772.1930u  
   47.50000g   -429.1433n    -29.9062n   -999.9941m   -764.0657u  
   48.00000g   -420.2873n    -28.9836n   -999.9942m   -756.1076u  
   48.50000g   -411.7023n    -28.0986n   -999.9943m   -748.3136u  
   49.00000g   -403.3773n    -27.2492n   -999.9944m   -740.6786u  
   49.50000g   -395.3019n    -26.4338n   -999.9945m   -733.1978u  
   50.00000g   -387.4664n    -25.6505n   -999.9946m   -725.8667u  
   50.50000g   -379.8612n    -24.8978n   -999.9947m   -718.6806u  
   51.00000g   -372.4774n    -24.1743n   -999.9948m   -711.6355u  
   51.50000g   -365.3067n    -23.4785n   -999.9949m   -704.7271u  
   52.00000g   -358.3407n    -22.8092n   -999.9950m   -697.9516u  
   52.50000g   -351.5719n    -22.1650n   -999.9951m   -691.3051u  
   53.00000g   -344.9929n    -21.5449n   -999.9952m   -684.7840u  
   53.50000g   -338.5966n    -20.9477n   -999.9953m   -678.3847u  
   54.00000g   -332.3764n    -20.3723n   -999.9954m   -672.1040u  
   54.50000g   -326.3258n    -19.8178n   -999.9955m   -665.9385u  
   55.00000g   -320.4388n    -19.2833n   -999.9956m   -659.8850u  
   55.50000g   -314.7095n    -18.7678n   -999.9956m   -653.9406u  
   56.00000g   -309.1323n    -18.2705n   -999.9957m   -648.1024u  
   56.50000g   -303.7019n    -17.7906n   -999.9958m   -642.3675u  
   57.00000g   -298.4133n    -17.3273n   -999.9959m   -636.7331u  
   57.50000g   -293.2614n    -16.8800n   -999.9959m   -631.1968u  
   58.00000g   -288.2417n    -16.4479n   -999.9960m   -625.7559u  
   58.50000g   -283.3496n    -16.0305n   -999.9961m   -620.4080u  
   59.00000g   -278.5810n    -15.6271n   -999.9961m   -615.1507u  
   59.50000g   -273.9316n    -15.2371n   -999.9962m   -609.9818u  
   60.00000g   -269.3975n    -14.8599n   -999.9963m   -604.8990u  
   60.50000g   -264.9750n    -14.4951n   -999.9963m   -599.9002u  
   61.00000g   -260.6603n    -14.1421n   -999.9964m   -594.9833u  
   61.50000g   -256.4502n    -13.8005n   -999.9965m   -590.1464u  
   62.00000g   -252.3411n    -13.4698n   -999.9965m   -585.3875u  
   62.50000g   -248.3299n    -13.1496n   -999.9966m   -580.7047u  
   63.00000g   -244.4136n    -12.8394n   -999.9966m   -576.0963u  
   63.50000g   -240.5890n    -12.5390n   -999.9967m   -571.5604u  
   64.00000g   -236.8535n    -12.2478n   -999.9967m   -567.0954u  
   64.50000g   -233.2043n    -11.9656n   -999.9968m   -562.6996u  
   65.00000g   -229.6386n    -11.6919n   -999.9968m   -558.3714u  
   65.50000g   -226.1541n    -11.4266n   -999.9969m   -554.1093u  
   66.00000g   -222.7482n    -11.1692n   -999.9969m   -549.9118u  
   66.50000g   -219.4186n    -10.9195n   -999.9970m   -545.7773u  
   67.00000g   -216.1631n    -10.6771n   -999.9970m   -541.7046u  
   67.50000g   -212.9794n    -10.4419n   -999.9971m   -537.6922u  
   68.00000g   -209.8655n    -10.2136n   -999.9971m   -533.7389u  
   68.50000g   -206.8194n     -9.9918n   -999.9971m   -529.8432u  
   69.00000g   -203.8390n     -9.7764n   -999.9972m   -526.0040u  
   69.50000g   -200.9226n     -9.5672n   -999.9972m   -522.2200u  
   70.00000g   -198.0683n     -9.3639n   -999.9973m   -518.4900u  
   70.50000g   -195.2743n     -9.1663n   -999.9973m   -514.8130u  
   71.00000g   -192.5390n     -8.9742n   -999.9973m   -511.1878u  
   71.50000g   -189.8607n     -8.7875n   -999.9974m   -507.6132u  
   72.00000g   -187.2379n     -8.6059n   -999.9974m   -504.0883u  
   72.50000g   -184.6691n     -8.4292n   -999.9974m   -500.6120u  
   73.00000g   -182.1527n     -8.2574n   -999.9975m   -497.1833u  
   73.50000g   -179.6873n     -8.0902n   -999.9975m   -493.8013u  
   74.00000g   -177.2717n     -7.9275n   -999.9975m   -490.4650u  
   74.50000g   -174.9044n     -7.7691n   -999.9976m   -487.1734u  
   75.00000g   -172.5842n     -7.6149n   -999.9976m   -483.9258u  
   75.50000g   -170.3098n     -7.4648n   -999.9976m   -480.7211u  
   76.00000g   -168.0801n     -7.3186n   -999.9977m   -477.5586u  
   76.50000g   -165.8938n     -7.1762n   -999.9977m   -474.4375u  
   77.00000g   -163.7499n     -7.0374n   -999.9977m   -471.3569u  
   77.50000g   -161.6473n     -6.9022n   -999.9978m   -468.3160u  
   78.00000g   -159.5848n     -6.7704n   -999.9978m   -465.3141u  
   78.50000g   -157.5616n     -6.6420n   -999.9978m   -462.3504u  
   79.00000g   -155.5766n     -6.5168n   -999.9978m   -459.4243u  
   79.50000g   -153.6289n     -6.3947n   -999.9979m   -456.5350u  
   80.00000g   -151.7175n     -6.2757n   -999.9979m   -453.6817u  
   80.50000g   -149.8415n     -6.1596n   -999.9979m   -450.8640u  
   81.00000g   -148.0001n     -6.0463n   -999.9980m   -448.0810u  
   81.50000g   -146.1924n     -5.9358n   -999.9980m   -445.3321u  
   82.00000g   -144.4176n     -5.8280n   -999.9980m   -442.6168u  
   82.50000g   -142.6749n     -5.7228n   -999.9980m   -439.9344u  
   83.00000g   -140.9635n     -5.6200n   -999.9981m   -437.2843u  
   83.50000g   -139.2828n     -5.5198n   -999.9981m   -434.6659u  
   84.00000g   -137.6319n     -5.4219n   -999.9981m   -432.0787u  
   84.50000g   -136.0102n     -5.3263n   -999.9981m   -429.5221u  
   85.00000g   -134.4169n     -5.2329n   -999.9981m   -426.9956u  
   85.50000g   -132.8515n     -5.1417n   -999.9982m   -424.4987u  
   86.00000g   -131.3133n     -5.0526n   -999.9982m   -422.0307u  
   86.50000g   -129.8016n     -4.9656n   -999.9982m   -419.5913u  
   87.00000g   -128.3158n     -4.8805n   -999.9982m   -417.1800u  
   87.50000g   -126.8554n     -4.7974n   -999.9982m   -414.7962u  
   88.00000g   -125.4198n     -4.7161n   -999.9983m   -412.4395u  
   88.50000g   -124.0084n     -4.6367n   -999.9983m   -410.1094u  
   89.00000g   -122.6207n     -4.5591n   -999.9983m   -407.8055u  
   89.50000g   -121.2562n     -4.4831n   -999.9983m   -405.5273u  
   90.00000g   -119.9143n     -4.4089n   -999.9983m   -403.2745u  
   90.50000g   -118.5945n     -4.3363n   -999.9984m   -401.0465u  
   91.00000g   -117.2964n     -4.2652n   -999.9984m   -398.8430u  
   91.50000g   -116.0195n     -4.1957n   -999.9984m   -396.6636u  
   92.00000g   -114.7633n     -4.1277n   -999.9984m   -394.5079u  
   92.50000g   -113.5274n     -4.0612n   -999.9984m   -392.3755u  
   93.00000g   -112.3113n     -3.9961n   -999.9984m   -390.2660u  
   93.50000g   -111.1147n     -3.9324n   -999.9985m   -388.1791u  
   94.00000g   -109.9371n     -3.8700n   -999.9985m   -386.1144u  
   94.50000g   -108.7781n     -3.8089n   -999.9985m   -384.0715u  
   95.00000g   -107.6373n     -3.7492n   -999.9985m   -382.0501u  
   95.50000g   -106.5144n     -3.6906n   -999.9985m   -380.0499u  
   96.00000g   -105.4089n     -3.6333n   -999.9985m   -378.0706u  
   96.50000g   -104.3206n     -3.5771n   -999.9986m   -376.1117u  
   97.00000g   -103.2490n     -3.5221n   -999.9986m   -374.1731u  
   97.50000g   -102.1938n     -3.4683n   -999.9986m   -372.2543u  
   98.00000g   -101.1548n     -3.4155n   -999.9986m   -370.3551u  
   98.50000g   -100.1315n     -3.3638n   -999.9986m   -368.4751u  
   99.00000g    -99.1236n     -3.3131n   -999.9986m   -366.6142u  
   99.50000g    -98.1309n     -3.2634n   -999.9986m   -364.7720u  
  100.00000g    -97.1530n     -3.2147n   -999.9987m   -362.9482u  
y

          ***** job concluded
1****** HSPICE -- C-2009.09 32-BIT (Aug 24 2009) winnt ******                   
 ******  
 .title test_unit_sparam

  ******  job statistics summary tnom=  25.000 temp=  27.000 *****

  ******  HSPICE Threads Information  ******

  Command Line Threads Count                  :     1
  Available CPU Count                         :     4
  Actual Model Evaluation(Load) Threads Count :     1
  Actual Solver Threads Count                 :     1


  ******  Circuit Statistics  ******
  # nodes       =       4 # elements   =       6
  # resistors   =       2 # capacitors =       1 # inductors   =       1
  # mutual_inds =       0 # vccs       =       0 # vcvs        =       0
  # cccs        =       0 # ccvs       =       0 # volt_srcs   =       0
  # curr_srcs   =       0 # diodes     =       0 # bjts        =       0
  # jfets       =       0 # mosfets    =       0 # U elements  =       0
  # T elements  =       0 # W elements =       0 # B elements  =       0
  # S elements  =       0 # P elements =       2 # va device   =       0


  ******  Runtime Statistics (seconds)  ******

  analysis           time    # points   tot. iter  conv.iter
  op point           0.00           1           3
  ac analysis        0.03         200         200
  readin             0.05
  errchk             0.01
  setup              0.01
  output             0.00


           total memory used          164  kbytes
           total cpu time            0.11 seconds
           total elapsed time        0.15 seconds
           job started at     16:21:06 02/13/2017
           job ended   at     16:21:07 02/13/2017


  lic: Release hspice token(s) 
