***** HSPICE -- C-2009.09 32-BIT (Aug 24 2009) winnt ******
 Input File: E:\microstrip_modeling\CPW_modeling\Modeling_of_CPW_v11(2-D-SVDfit)
 lic:
 lic: FLEXlm: v8.5b
 lic: USER:   MY                   HOSTNAME: MY-PC
 lic: HOSTID: "22104182b4cb b0104182b4cb b083fe554343 b0104182b4cc 005056c00001
 lic: Using FLEXlm license file:
 lic: 27000@localhost
 lic: Checkout 1 hspice
 lic: License/Maintenance for hspice will expire on 31-dec-2028/2008.120
 lic: FLOATING license(s) on SERVER localhost
 lic:
 init: begin read circuit files,  cpu clock=  6.40E-02
       option search   = C:\synopsys\Hspice_C-2009.09\PARTS\behave\
       option search   = C:\synopsys\Hspice_C-2009.09\PARTS\AD\
       option search   = C:\synopsys\Hspice_C-2009.09\PARTS\XILINX\
       option search   = C:\synopsys\Hspice_C-2009.09\PARTS\TLINE\
       option search   = C:\synopsys\Hspice_C-2009.09\PARTS\TI\
       option search   = C:\synopsys\Hspice_C-2009.09\PARTS\SIGNET\
       option search   = C:\synopsys\Hspice_C-2009.09\PARTS\PCI\
       option search   = C:\synopsys\Hspice_C-2009.09\PARTS\LIN_TECH\
       option search   = C:\synopsys\Hspice_C-2009.09\PARTS\FET\
       option search   = C:\synopsys\Hspice_C-2009.09\PARTS\DIO\
       option search   = C:\synopsys\Hspice_C-2009.09\PARTS\COMLINE\
       option search   = C:\synopsys\Hspice_C-2009.09\PARTS\BURR_BRN\
       option search   = C:\synopsys\Hspice_C-2009.09\PARTS\BJT\
       option search   = C:\synopsys\Hspice_C-2009.09\PARTS\behave\
       option search   = C:\synopsys\Hspice_C-2009.09\PARTS\AD\
       option post
       option runlvl   =     6.00
       option post     =     1.00
       option runlvl   =     6.00
 init: end read circuit files,  cpu clock=  1.45E-01 memory=    150 kb
 init: begin check errors,  cpu clock=  1.45E-01
 init: end check errors,  cpu clock=  1.49E-01 memory=    153 kb
 init: begin setup matrix, pivot=     0 cpu clock=  1.49E-01
       establish matrix -- done,  cpu clock=  1.52E-01 memory=    154 kb
       re-order matrix -- done,  cpu clock=  1.53E-01 memory=    154 kb
 init: end setup matrix,  cpu clock=  1.55E-01 memory=    164 kb
 dcop: begin dcop,  cpu clock=  1.63E-01
 dcop: end dcop,  cpu clock=  1.66E-01 memory=    164 kb  tot_iter=       3
 output: hspice_project\test_unit_Sparam\test_unit_Sparam.ac0
 sweep: ac ac0    begin, #sweeps= 200 cpu clock=  1.69E-01
 ac: frequency=    1.00E+09
 ac: frequency=    1.00E+10
 ac: frequency=    2.00E+10
 ac: frequency=    3.00E+10
 ac: frequency=    4.00E+10
 ac: frequency=    5.00E+10
 ac: frequency=    6.00E+10
 ac: frequency=    7.00E+10
 ac: frequency=    8.00E+10
 ac: frequency=    9.00E+10
 ac: frequency=    1.00E+11
 sweep: ac ac0    end,  cpu clock=  1.95E-01 memory=    182 kb
>info:         ***** hspice job concluded
 lic: Release hspice token(s)
