 ****** HSPICE -- C-2009.09 32-BIT (Aug 24 2009) winnt ******                   
  Copyright (C) 2009 Synopsys, Inc. All Rights Reserved.                        
  Unpublished-rights reserved under US copyright laws.
  This program is protected by law and is subject to the 
  terms and conditions of the license agreement from Synopsys.
  Use of this program is your acceptance to be bound by the 
  license agreement. HSPICE is the trademark of Synopsys, Inc.
  Input File: E:\microstrip_modeling\GCPW_modeling\Modeling_of_GCPW_v1\hspice_pr
  lic:  
  lic: FLEXlm: v8.5b 
  lic: USER:   MY                   HOSTNAME: MY-PC 
  lic: HOSTID: "22104182b4cb b0104182b4cb b083fe554343 b0104182b4cc 005056c00001
  
  lic: Using FLEXlm license file: 
  lic: 27000@localhost 
  lic: Checkout 1 hspice 
  lic: License/Maintenance for hspice will expire on 31-dec-2028/2008.120 
  lic: FLOATING license(s) on SERVER localhost 
  lic:   
 Init: read install configuration file: D:\synopsys\Hspice_C-2009.09\meta.cfg
1****** HSPICE -- C-2009.09 32-BIT (Aug 24 2009) winnt ******                   
 ******  
 .title test_cpw

  ******  circuit name directory
 circuit number to circuit name directory
   number circuitname                     definition         multiplier
        0 main circuit
        1 x1.                             cpw                1.00 



 **** List of Port Elements
Port Number     Mode        Zo       DC bias
     1         single    ( 50.0    ,0.0)    0.00    
     2         single    ( 50.0    ,0.0)    0.00    
 
      
 *****************************************************************
 ******  option summary
 ******
 runlvl  = 6         bypass  = 2         
  Opening plot unit= 79
 file=hspice_project\cpw\test_cpw.pa0                                          




 **** List of Port Elements
Port Number     Mode        Zo       DC bias
     1         single    ( 50.0    ,0.0)    0.00    
     2         single    ( 50.0    ,0.0)    0.00    
1****** HSPICE -- C-2009.09 32-BIT (Aug 24 2009) winnt ******                   
 ******  
 .title test_cpw

  ******  operating point information tnom=  25.000 temp=  27.000 *****
 ***** operating point status is all       simulation time is     0.     
    node    =voltage      node    =voltage      node    =voltage

 +0:a       =   0.      0:b       =   0.      1:np011   =   0.     
 +1:np012   =   0.      1:np013   =   0.      1:np021   =   0.     
 +1:np022   =   0.      1:np023   =   0.      1:np031   =   0.     
 +1:np032   =   0.      1:np033   =   0.      1:np041   =   0.     
 +1:np042   =   0.      1:np043   =   0.      1:np051   =   0.     
 +1:np052   =   0.      1:np053   =   0.      1:np061   =   0.     
 +1:np062   =   0.      1:np063   =   0.      1:np071   =   0.     
 +1:np072   =   0.      1:np073   =   0.      1:np081   =   0.     
 +1:np082   =   0.      1:np083   =   0.      1:np091   =   0.     
 +1:np092   =   0.      1:np093   =   0.      1:np101   =   0.     
 +1:np102   =   0.      1:np103   =   0.      1:np111   =   0.     
 +1:np112   =   0.      1:np113   =   0.      1:ns011   =   0.     
 +1:ns012   =   0.      1:ns013   =   0.      1:ns014   =   0.     
 +1:ns015   =   0.      1:ns021   =   0.      1:ns022   =   0.     
 +1:ns023   =   0.      1:ns024   =   0.      1:ns025   =   0.     
 +1:ns031   =   0.      1:ns032   =   0.      1:ns033   =   0.     
 +1:ns034   =   0.      1:ns035   =   0.      1:ns041   =   0.     
 +1:ns042   =   0.      1:ns043   =   0.      1:ns044   =   0.     
 +1:ns045   =   0.      1:ns051   =   0.      1:ns052   =   0.     
 +1:ns053   =   0.      1:ns054   =   0.      1:ns055   =   0.     
 +1:ns061   =   0.      1:ns062   =   0.      1:ns063   =   0.     
 +1:ns064   =   0.      1:ns065   =   0.      1:ns071   =   0.     
 +1:ns072   =   0.      1:ns073   =   0.      1:ns074   =   0.     
 +1:ns075   =   0.      1:ns081   =   0.      1:ns082   =   0.     
 +1:ns083   =   0.      1:ns084   =   0.      1:ns085   =   0.     
 +1:ns091   =   0.      1:ns092   =   0.      1:ns093   =   0.     
 +1:ns094   =   0.      1:ns095   =   0.      1:ns101   =   0.     
 +1:ns102   =   0.      1:ns103   =   0.      1:ns104   =   0.     


 ****  port elements

 subckt                        
 element  0:p1       0:p2      
  volts      0.         0.     
  current    0.         0.     
  power      0.         0.     


     total port element power dissipation=    0.            watts

 **** resistors

 subckt   x1         x1         x1         x1         x1         x1        
 element  1:rg010    1:rg011    1:rg012    1:rg013    1:r010     1:r011    
  r value    2.8767x    2.1811x   47.0725k  308.8642k   48.5265m    5.9232m
  v drop     0.         0.         0.         0.         0.         0.     
  current    0.         0.         0.         0.         0.         0.     
  power      0.         0.         0.         0.         0.         0.     

 subckt   x1         x1         x1         x1         x1         x1        
 element  1:r012     1:r013     1:rg020    1:rg021    1:rg022    1:rg023   
  r value  150.2469m  208.3404m    1.4383x    1.0906x   23.5363k  154.4321k
  v drop     0.         0.         0.         0.         0.         0.     
  current    0.         0.         0.         0.         0.         0.     
  power      0.         0.         0.         0.         0.         0.     

 subckt   x1         x1         x1         x1         x1         x1        
 element  1:r020     1:r021     1:r022     1:r023     1:rg030    1:rg031   
  r value   48.5265m    5.9232m  150.2469m  208.3404m    1.4383x    1.0906x
  v drop     0.         0.         0.         0.         0.         0.     
  current    0.         0.         0.         0.         0.         0.     
  power      0.         0.         0.         0.         0.         0.     

 subckt   x1         x1         x1         x1         x1         x1        
 element  1:rg032    1:rg033    1:r030     1:r031     1:r032     1:r033    
  r value   23.5363k  154.4321k   48.5265m    5.9232m  150.2469m  208.3404m
  v drop     0.         0.         0.         0.         0.         0.     
  current    0.         0.         0.         0.         0.         0.     
  power      0.         0.         0.         0.         0.         0.     

 subckt   x1         x1         x1         x1         x1         x1        
 element  1:rg040    1:rg041    1:rg042    1:rg043    1:r040     1:r041    
  r value    1.4383x    1.0906x   23.5363k  154.4321k   48.5265m    5.9232m
  v drop     0.         0.         0.         0.         0.         0.     
  current    0.         0.         0.         0.         0.         0.     
  power      0.         0.         0.         0.         0.         0.     

 subckt   x1         x1         x1         x1         x1         x1        
 element  1:r042     1:r043     1:rg050    1:rg051    1:rg052    1:rg053   
  r value  150.2469m  208.3404m    1.4383x    1.0906x   23.5363k  154.4321k
  v drop     0.         0.         0.         0.         0.         0.     
  current    0.         0.         0.         0.         0.         0.     
  power      0.         0.         0.         0.         0.         0.     

 subckt   x1         x1         x1         x1         x1         x1        
 element  1:r050     1:r051     1:r052     1:r053     1:rg060    1:rg061   
  r value   48.5265m    5.9232m  150.2469m  208.3404m    1.4383x    1.0906x
  v drop     0.         0.         0.         0.         0.         0.     
  current    0.         0.         0.         0.         0.         0.     
  power      0.         0.         0.         0.         0.         0.     

 subckt   x1         x1         x1         x1         x1         x1        
 element  1:rg062    1:rg063    1:r060     1:r061     1:r062     1:r063    
  r value   23.5363k  154.4321k   48.5265m    5.9232m  150.2469m  208.3404m
  v drop     0.         0.         0.         0.         0.         0.     
  current    0.         0.         0.         0.         0.         0.     
  power      0.         0.         0.         0.         0.         0.     

 subckt   x1         x1         x1         x1         x1         x1        
 element  1:rg070    1:rg071    1:rg072    1:rg073    1:r070     1:r071    
  r value    1.4383x    1.0906x   23.5363k  154.4321k   48.5265m    5.9232m
  v drop     0.         0.         0.         0.         0.         0.     
  current    0.         0.         0.         0.         0.         0.     
  power      0.         0.         0.         0.         0.         0.     

 subckt   x1         x1         x1         x1         x1         x1        
 element  1:r072     1:r073     1:rg080    1:rg081    1:rg082    1:rg083   
  r value  150.2469m  208.3404m    1.4383x    1.0906x   23.5363k  154.4321k
  v drop     0.         0.         0.         0.         0.         0.     
  current    0.         0.         0.         0.         0.         0.     
  power      0.         0.         0.         0.         0.         0.     

 subckt   x1         x1         x1         x1         x1         x1        
 element  1:r080     1:r081     1:r082     1:r083     1:rg090    1:rg091   
  r value   48.5265m    5.9232m  150.2469m  208.3404m    1.4383x    1.0906x
  v drop     0.         0.         0.         0.         0.         0.     
  current    0.         0.         0.         0.         0.         0.     
  power      0.         0.         0.         0.         0.         0.     

 subckt   x1         x1         x1         x1         x1         x1        
 element  1:rg092    1:rg093    1:r090     1:r091     1:r092     1:r093    
  r value   23.5363k  154.4321k   48.5265m    5.9232m  150.2469m  208.3404m
  v drop     0.         0.         0.         0.         0.         0.     
  current    0.         0.         0.         0.         0.         0.     
  power      0.         0.         0.         0.         0.         0.     

 subckt   x1         x1         x1         x1         x1         x1        
 element  1:rg100    1:rg101    1:rg102    1:rg103    1:r100     1:r101    
  r value    1.4383x    1.0906x   23.5363k  154.4321k   48.5265m    5.9232m
  v drop     0.         0.         0.         0.         0.         0.     
  current    0.         0.         0.         0.         0.         0.     
  power      0.         0.         0.         0.         0.         0.     

 subckt   x1         x1         x1         x1         x1         x1        
 element  1:r102     1:r103     1:rg110    1:rg111    1:rg112    1:rg113   
  r value  150.2469m  208.3404m    2.8767x    2.1811x   47.0725k  308.8642k
  v drop     0.         0.         0.         0.         0.         0.     
  current    0.         0.         0.         0.         0.         0.     
  power      0.         0.         0.         0.         0.         0.     

 ******  
 .title test_cpw

  ******  ac analysis tnom=  25.000 temp=  27.000 *****
x

        freq    s11          s11          s21          s21        
                   real         imag         real         imag    
  500.00000x      4.7168m    534.8739u    994.7475m     -9.0052m  
    1.00000g      4.7923m    967.7071u    994.2499m    -17.7459m  
    1.50000g      4.8092m      1.3643m    993.6808m    -26.3417m  
    2.00000g      4.7803m      1.7724m    993.0276m    -34.8753m  
    2.50000g      4.7254m      2.2070m    992.2667m    -43.3594m  
    3.00000g      4.6585m      2.6722m    991.3902m    -51.7883m  
    3.50000g      4.5901m      3.1687m    990.4003m    -60.1536m  
    4.00000g      4.5284m      3.6952m    989.3034m    -68.4489m  
    4.50000g      4.4800m      4.2494m    988.1082m    -76.6702m  
    5.00000g      4.4506m      4.8277m    986.8236m    -84.8153m  
    5.50000g      4.4441m      5.4265m    985.4584m    -92.8842m  
    6.00000g      4.4637m      6.0414m    984.0207m   -100.8780m  
    6.50000g      4.5114m      6.6680m    982.5178m   -108.7988m  
    7.00000g      4.5882m      7.3021m    980.9558m   -116.6495m  
    7.50000g      4.6942m      7.9397m    979.3402m   -124.4334m  
    8.00000g      4.8292m      8.5771m    977.6754m   -132.1541m  
    8.50000g      4.9921m      9.2110m    975.9651m   -139.8152m  
    9.00000g      5.1815m      9.8387m    974.2123m   -147.4205m  
    9.50000g      5.3960m     10.4578m    972.4192m   -154.9733m  
   10.00000g      5.6337m     11.0663m    970.5877m   -162.4771m  
   10.50000g      5.8928m     11.6629m    968.7191m   -169.9350m  
   11.00000g      6.1714m     12.2462m    966.8144m   -177.3500m  
   11.50000g      6.4678m     12.8155m    964.8742m   -184.7248m  
   12.00000g      6.7802m     13.3701m    962.8989m   -192.0618m  
   12.50000g      7.1070m     13.9098m    960.8886m   -199.3634m  
   13.00000g      7.4467m     14.4344m    958.8434m   -206.6316m  
   13.50000g      7.7978m     14.9439m    956.7631m   -213.8682m  
   14.00000g      8.1591m     15.4384m    954.6474m   -221.0748m  
   14.50000g      8.5294m     15.9182m    952.4961m   -228.2529m  
   15.00000g      8.9078m     16.3835m    950.3086m   -235.4038m  
   15.50000g      9.2932m     16.8348m    948.0847m   -242.5286m  
   16.00000g      9.6850m     17.2723m    945.8237m   -249.6283m  
   16.50000g     10.0823m     17.6966m    943.5253m   -256.7037m  
   17.00000g     10.4846m     18.1080m    941.1888m   -263.7557m  
   17.50000g     10.8913m     18.5069m    938.8138m   -270.7846m  
   18.00000g     11.3020m     18.8938m    936.3998m   -277.7912m  
   18.50000g     11.7163m     19.2690m    933.9462m   -284.7757m  
   19.00000g     12.1338m     19.6331m    931.4526m   -291.7386m  
   19.50000g     12.5542m     19.9862m    928.9185m   -298.6801m  
   20.00000g     12.9773m     20.3288m    926.3434m   -305.6003m  
   20.50000g     13.4028m     20.6613m    923.7270m   -312.4995m  
   21.00000g     13.8307m     20.9838m    921.0688m   -319.3775m  
   21.50000g     14.2607m     21.2968m    918.3684m   -326.2346m  
   22.00000g     14.6927m     21.6005m    915.6255m   -333.0706m  
   22.50000g     15.1266m     21.8951m    912.8397m   -339.8854m  
   23.00000g     15.5623m     22.1809m    910.0107m   -346.6790m  
   23.50000g     15.9997m     22.4580m    907.1383m   -353.4512m  
   24.00000g     16.4389m     22.7267m    904.2222m   -360.2018m  
   24.50000g     16.8796m     22.9871m    901.2621m   -366.9306m  
   25.00000g     17.3219m     23.2394m    898.2578m   -373.6375m  
   25.50000g     17.7657m     23.4837m    895.2091m   -380.3221m  
   26.00000g     18.2110m     23.7202m    892.1159m   -386.9842m  
   26.50000g     18.6578m     23.9489m    888.9781m   -393.6235m  
   27.00000g     19.1059m     24.1700m    885.7954m   -400.2397m  
   27.50000g     19.5555m     24.3835m    882.5677m   -406.8325m  
   28.00000g     20.0064m     24.5896m    879.2951m   -413.4016m  
   28.50000g     20.4586m     24.7882m    875.9774m   -419.9467m  
   29.00000g     20.9121m     24.9796m    872.6145m   -426.4674m  
   29.50000g     21.3669m     25.1636m    869.2065m   -432.9634m  
   30.00000g     21.8229m     25.3404m    865.7533m   -439.4343m  
   30.50000g     22.2801m     25.5101m    862.2549m   -445.8798m  
   31.00000g     22.7384m     25.6725m    858.7113m   -452.2994m  
   31.50000g     23.1978m     25.8279m    855.1225m   -458.6930m  
   32.00000g     23.6582m     25.9761m    851.4886m   -465.0600m  
   32.50000g     24.1197m     26.1173m    847.8097m   -471.4001m  
   33.00000g     24.5822m     26.2514m    844.0857m   -477.7130m  
   33.50000g     25.0455m     26.3784m    840.3169m   -483.9982m  
   34.00000g     25.5098m     26.4984m    836.5032m   -490.2555m  
   34.50000g     25.9748m     26.6114m    832.6447m   -496.4844m  
   35.00000g     26.4406m     26.7174m    828.7417m   -502.6845m  
   35.50000g     26.9071m     26.8164m    824.7941m   -508.8555m  
   36.00000g     27.3742m     26.9084m    820.8022m   -514.9971m  
   36.50000g     27.8419m     26.9934m    816.7660m   -521.1088m  
   37.00000g     28.3101m     27.0714m    812.6857m   -527.1902m  
   37.50000g     28.7787m     27.1424m    808.5615m   -533.2411m  
   38.00000g     29.2477m     27.2064m    804.3935m   -539.2611m  
   38.50000g     29.7170m     27.2635m    800.1819m   -545.2497m  
   39.00000g     30.1865m     27.3135m    795.9269m   -551.2067m  
   39.50000g     30.6561m     27.3566m    791.6287m   -557.1317m  
   40.00000g     31.1259m     27.3928m    787.2874m   -563.0242m  
   40.50000g     31.5956m     27.4219m    782.9033m   -568.8841m  
   41.00000g     32.0652m     27.4442m    778.4765m   -574.7108m  
   41.50000g     32.5347m     27.4594m    774.0073m   -580.5041m  
   42.00000g     33.0039m     27.4677m    769.4959m   -586.2637m  
   42.50000g     33.4727m     27.4691m    764.9425m   -591.9891m  
   43.00000g     33.9412m     27.4636m    760.3474m   -597.6801m  
   43.50000g     34.4091m     27.4511m    755.7107m   -603.3363m  
   44.00000g     34.8765m     27.4317m    751.0328m   -608.9573m  
   44.50000g     35.3432m     27.4054m    746.3137m   -614.5429m  
   45.00000g     35.8092m     27.3723m    741.5539m   -620.0927m  
   45.50000g     36.2742m     27.3322m    736.7536m   -625.6064m  
   46.00000g     36.7384m     27.2853m    731.9129m   -631.0837m  
   46.50000g     37.2015m     27.2316m    727.0322m   -636.5242m  
   47.00000g     37.6635m     27.1711m    722.1117m   -641.9277m  
   47.50000g     38.1243m     27.1037m    717.1517m   -647.2937m  
   48.00000g     38.5839m     27.0296m    712.1525m   -652.6221m  
   48.50000g     39.0420m     26.9486m    707.1143m   -657.9125m  
   49.00000g     39.4987m     26.8610m    702.0375m   -663.1647m  
   49.50000g     39.9538m     26.7667m    696.9222m   -668.3782m  
   50.00000g     40.4072m     26.6656m    691.7688m   -673.5528m  
   50.50000g     40.8589m     26.5579m    686.5776m   -678.6883m  
   51.00000g     41.3088m     26.4436m    681.3489m   -683.7842m  
   51.50000g     41.7567m     26.3226m    676.0828m   -688.8404m  
   52.00000g     42.2027m     26.1951m    670.7799m   -693.8566m  
   52.50000g     42.6465m     26.0611m    665.4402m   -698.8324m  
   53.00000g     43.0881m     25.9206m    660.0642m   -703.7677m  
   53.50000g     43.5275m     25.7736m    654.6522m   -708.6620m  
   54.00000g     43.9644m     25.6201m    649.2044m   -713.5152m  
   54.50000g     44.3990m     25.4603m    643.7212m   -718.3270m  
   55.00000g     44.8309m     25.2942m    638.2028m   -723.0971m  
   55.50000g     45.2603m     25.1217m    632.6496m   -727.8252m  
   56.00000g     45.6869m     24.9429m    627.0619m   -732.5112m  
   56.50000g     46.1107m     24.7580m    621.4400m   -737.1546m  
   57.00000g     46.5316m     24.5668m    615.7843m   -741.7554m  
   57.50000g     46.9496m     24.3695m    610.0950m   -746.3132m  
   58.00000g     47.3645m     24.1662m    604.3725m   -750.8277m  
   58.50000g     47.7762m     23.9568m    598.6170m   -755.2988m  
   59.00000g     48.1847m     23.7414m    592.8290m   -759.7262m  
   59.50000g     48.5899m     23.5201m    587.0088m   -764.1097m  
   60.00000g     48.9917m     23.2929m    581.1566m   -768.4489m  
   60.50000g     49.3900m     23.0599m    575.2729m   -772.7438m  
   61.00000g     49.7848m     22.8212m    569.3579m   -776.9940m  
   61.50000g     50.1759m     22.5767m    563.4120m   -781.1993m  
   62.00000g     50.5633m     22.3265m    557.4355m   -785.3595m  
   62.50000g     50.9470m     22.0708m    551.4287m   -789.4744m  
   63.00000g     51.3267m     21.8095m    545.3921m   -793.5438m  
   63.50000g     51.7025m     21.5427m    539.3259m   -797.5674m  
   64.00000g     52.0743m     21.2706m    533.2305m   -801.5451m  
   64.50000g     52.4420m     20.9930m    527.1062m   -805.4765m  
   65.00000g     52.8056m     20.7102m    520.9533m   -809.3616m  
   65.50000g     53.1649m     20.4222m    514.7723m   -813.2001m  
   66.00000g     53.5199m     20.1290m    508.5635m   -816.9918m  
   66.50000g     53.8705m     19.8307m    502.3272m   -820.7365m  
   67.00000g     54.2166m     19.5274m    496.0637m   -824.4340m  
   67.50000g     54.5583m     19.2191m    489.7735m   -828.0842m  
   68.00000g     54.8953m     18.9060m    483.4568m   -831.6867m  
   68.50000g     55.2277m     18.5880m    477.1141m   -835.2416m  
   69.00000g     55.5554m     18.2653m    470.7456m   -838.7484m  
   69.50000g     55.8783m     17.9379m    464.3518m   -842.2071m  
   70.00000g     56.1964m     17.6059m    457.9330m   -845.6176m  
   70.50000g     56.5095m     17.2694m    451.4896m   -848.9795m  
   71.00000g     56.8177m     16.9284m    445.0218m   -852.2928m  
   71.50000g     57.1209m     16.5831m    438.5302m   -855.5572m  
   72.00000g     57.4190m     16.2335m    432.0149m   -858.7727m  
   72.50000g     57.7119m     15.8796m    425.4765m   -861.9389m  
   73.00000g     57.9996m     15.5216m    418.9153m   -865.0559m  
   73.50000g     58.2821m     15.1595m    412.3316m   -868.1233m  
   74.00000g     58.5593m     14.7935m    405.7258m   -871.1412m  
   74.50000g     58.8311m     14.4235m    399.0982m   -874.1092m  
   75.00000g     59.0975m     14.0497m    392.4493m   -877.0272m  
   75.50000g     59.3584m     13.6722m    385.7795m   -879.8951m  
   76.00000g     59.6138m     13.2910m    379.0889m   -882.7128m  
   76.50000g     59.8637m     12.9062m    372.3782m   -885.4801m  
   77.00000g     60.1079m     12.5179m    365.6475m   -888.1969m  
   77.50000g     60.3465m     12.1263m    358.8974m   -890.8629m  
   78.00000g     60.5794m     11.7312m    352.1281m   -893.4782m  
   78.50000g     60.8065m     11.3329m    345.3401m   -896.0425m  
   79.00000g     61.0279m     10.9315m    338.5337m   -898.5557m  
   79.50000g     61.2434m     10.5270m    331.7092m   -901.0177m  
   80.00000g     61.4531m     10.1195m    324.8672m   -903.4284m  
   80.50000g     61.6568m      9.7091m    318.0079m   -905.7876m  
   81.00000g     61.8546m      9.2958m    311.1317m   -908.0953m  
   81.50000g     62.0464m      8.8799m    304.2390m   -910.3512m  
   82.00000g     62.2322m      8.4613m    297.3302m   -912.5553m  
   82.50000g     62.4120m      8.0401m    290.4057m   -914.7075m  
   83.00000g     62.5857m      7.6165m    283.4659m   -916.8077m  
   83.50000g     62.7532m      7.1905m    276.5110m   -918.8558m  
   84.00000g     62.9146m      6.7622m    269.5416m   -920.8516m  
   84.50000g     63.0699m      6.3317m    262.5580m   -922.7950m  
   85.00000g     63.2189m      5.8991m    255.5605m   -924.6860m  
   85.50000g     63.3617m      5.4644m    248.5497m   -926.5245m  
   86.00000g     63.4983m      5.0279m    241.5257m   -928.3103m  
   86.50000g     63.6285m      4.5895m    234.4891m   -930.0434m  
   87.00000g     63.7525m      4.1493m    227.4403m   -931.7237m  
   87.50000g     63.8701m      3.7075m    220.3795m   -933.3511m  
   88.00000g     63.9814m      3.2642m    213.3073m   -934.9255m  
   88.50000g     64.0864m      2.8193m    206.2239m   -936.4469m  
   89.00000g     64.1849m      2.3731m    199.1298m   -937.9151m  
   89.50000g     64.2771m      1.9256m    192.0254m   -939.3301m  
   90.00000g     64.3628m      1.4769m    184.9110m   -940.6918m  
   90.50000g     64.4422m      1.0271m    177.7871m   -942.0002m  
   91.00000g     64.5150m    576.2483u    170.6540m   -943.2552m  
   91.50000g     64.5815m    124.4999u    163.5121m   -944.4566m  
   92.00000g     64.6414m   -328.0766u    156.3618m   -945.6045m  
   92.50000g     64.6949m   -781.3885u    149.2036m   -946.6988m  
   93.00000g     64.7419m     -1.2353m    142.0378m   -947.7395m  
   93.50000g     64.7824m     -1.6898m    134.8647m   -948.7264m  
   94.00000g     64.8164m     -2.1448m    127.6848m   -949.6596m  
   94.50000g     64.8440m     -2.6001m    120.4985m   -950.5390m  
   95.00000g     64.8650m     -3.0557m    113.3062m   -951.3645m  
   95.50000g     64.8795m     -3.5115m    106.1083m   -952.1361m  
   96.00000g     64.8875m     -3.9674m     98.9051m   -952.8538m  
   96.50000g     64.8891m     -4.4232m     91.6971m   -953.5175m  
   97.00000g     64.8841m     -4.8790m     84.4846m   -954.1272m  
   97.50000g     64.8726m     -5.3345m     77.2681m   -954.6829m  
   98.00000g     64.8546m     -5.7898m     70.0479m   -955.1845m  
   98.50000g     64.8302m     -6.2447m     62.8244m   -955.6320m  
   99.00000g     64.7992m     -6.6991m     55.5981m   -956.0253m  
   99.50000g     64.7618m     -7.1530m     48.3693m   -956.3646m  
  100.00000g     64.7179m     -7.6062m     41.1384m   -956.6497m  
y
x

        freq    s12          s12          s22          s22        
                   real         imag         real         imag    
  500.00000x    994.7475m     -9.0052m      4.7168m    534.8739u  
    1.00000g    994.2499m    -17.7459m      4.7923m    967.7071u  
    1.50000g    993.6808m    -26.3417m      4.8092m      1.3643m  
    2.00000g    993.0276m    -34.8753m      4.7803m      1.7724m  
    2.50000g    992.2667m    -43.3594m      4.7254m      2.2070m  
    3.00000g    991.3902m    -51.7883m      4.6585m      2.6722m  
    3.50000g    990.4003m    -60.1536m      4.5901m      3.1687m  
    4.00000g    989.3034m    -68.4489m      4.5284m      3.6952m  
    4.50000g    988.1082m    -76.6702m      4.4800m      4.2494m  
    5.00000g    986.8236m    -84.8153m      4.4506m      4.8277m  
    5.50000g    985.4584m    -92.8842m      4.4441m      5.4265m  
    6.00000g    984.0207m   -100.8780m      4.4637m      6.0414m  
    6.50000g    982.5178m   -108.7988m      4.5114m      6.6680m  
    7.00000g    980.9558m   -116.6495m      4.5882m      7.3021m  
    7.50000g    979.3402m   -124.4334m      4.6942m      7.9397m  
    8.00000g    977.6754m   -132.1541m      4.8292m      8.5771m  
    8.50000g    975.9651m   -139.8152m      4.9921m      9.2110m  
    9.00000g    974.2123m   -147.4205m      5.1815m      9.8387m  
    9.50000g    972.4192m   -154.9733m      5.3960m     10.4578m  
   10.00000g    970.5877m   -162.4771m      5.6337m     11.0663m  
   10.50000g    968.7191m   -169.9350m      5.8928m     11.6629m  
   11.00000g    966.8144m   -177.3500m      6.1714m     12.2462m  
   11.50000g    964.8742m   -184.7248m      6.4678m     12.8155m  
   12.00000g    962.8989m   -192.0618m      6.7802m     13.3701m  
   12.50000g    960.8886m   -199.3634m      7.1070m     13.9098m  
   13.00000g    958.8434m   -206.6316m      7.4467m     14.4344m  
   13.50000g    956.7631m   -213.8682m      7.7978m     14.9439m  
   14.00000g    954.6474m   -221.0748m      8.1591m     15.4384m  
   14.50000g    952.4961m   -228.2529m      8.5294m     15.9182m  
   15.00000g    950.3086m   -235.4038m      8.9078m     16.3835m  
   15.50000g    948.0847m   -242.5286m      9.2932m     16.8348m  
   16.00000g    945.8237m   -249.6283m      9.6850m     17.2723m  
   16.50000g    943.5253m   -256.7037m     10.0823m     17.6966m  
   17.00000g    941.1888m   -263.7557m     10.4846m     18.1080m  
   17.50000g    938.8138m   -270.7846m     10.8913m     18.5069m  
   18.00000g    936.3998m   -277.7912m     11.3020m     18.8938m  
   18.50000g    933.9462m   -284.7757m     11.7163m     19.2690m  
   19.00000g    931.4526m   -291.7386m     12.1338m     19.6331m  
   19.50000g    928.9185m   -298.6801m     12.5542m     19.9862m  
   20.00000g    926.3434m   -305.6003m     12.9773m     20.3288m  
   20.50000g    923.7270m   -312.4995m     13.4028m     20.6613m  
   21.00000g    921.0688m   -319.3775m     13.8307m     20.9838m  
   21.50000g    918.3684m   -326.2346m     14.2607m     21.2968m  
   22.00000g    915.6255m   -333.0706m     14.6927m     21.6005m  
   22.50000g    912.8397m   -339.8854m     15.1266m     21.8951m  
   23.00000g    910.0107m   -346.6790m     15.5623m     22.1809m  
   23.50000g    907.1383m   -353.4512m     15.9997m     22.4580m  
   24.00000g    904.2222m   -360.2018m     16.4389m     22.7267m  
   24.50000g    901.2621m   -366.9306m     16.8796m     22.9871m  
   25.00000g    898.2578m   -373.6375m     17.3219m     23.2394m  
   25.50000g    895.2091m   -380.3221m     17.7657m     23.4837m  
   26.00000g    892.1159m   -386.9842m     18.2110m     23.7202m  
   26.50000g    888.9781m   -393.6235m     18.6578m     23.9489m  
   27.00000g    885.7954m   -400.2397m     19.1059m     24.1700m  
   27.50000g    882.5677m   -406.8325m     19.5555m     24.3835m  
   28.00000g    879.2951m   -413.4016m     20.0064m     24.5896m  
   28.50000g    875.9774m   -419.9467m     20.4586m     24.7882m  
   29.00000g    872.6145m   -426.4674m     20.9121m     24.9796m  
   29.50000g    869.2065m   -432.9634m     21.3669m     25.1636m  
   30.00000g    865.7533m   -439.4343m     21.8229m     25.3404m  
   30.50000g    862.2549m   -445.8798m     22.2801m     25.5101m  
   31.00000g    858.7113m   -452.2994m     22.7384m     25.6725m  
   31.50000g    855.1225m   -458.6930m     23.1978m     25.8279m  
   32.00000g    851.4886m   -465.0600m     23.6582m     25.9761m  
   32.50000g    847.8097m   -471.4001m     24.1197m     26.1173m  
   33.00000g    844.0857m   -477.7130m     24.5822m     26.2514m  
   33.50000g    840.3169m   -483.9982m     25.0455m     26.3784m  
   34.00000g    836.5032m   -490.2555m     25.5098m     26.4984m  
   34.50000g    832.6447m   -496.4844m     25.9748m     26.6114m  
   35.00000g    828.7417m   -502.6845m     26.4406m     26.7174m  
   35.50000g    824.7941m   -508.8555m     26.9071m     26.8164m  
   36.00000g    820.8022m   -514.9971m     27.3742m     26.9084m  
   36.50000g    816.7660m   -521.1088m     27.8419m     26.9934m  
   37.00000g    812.6857m   -527.1902m     28.3101m     27.0714m  
   37.50000g    808.5615m   -533.2411m     28.7787m     27.1424m  
   38.00000g    804.3935m   -539.2611m     29.2477m     27.2064m  
   38.50000g    800.1819m   -545.2497m     29.7170m     27.2635m  
   39.00000g    795.9269m   -551.2067m     30.1865m     27.3135m  
   39.50000g    791.6287m   -557.1317m     30.6561m     27.3566m  
   40.00000g    787.2874m   -563.0242m     31.1259m     27.3928m  
   40.50000g    782.9033m   -568.8841m     31.5956m     27.4219m  
   41.00000g    778.4765m   -574.7108m     32.0652m     27.4442m  
   41.50000g    774.0073m   -580.5041m     32.5347m     27.4594m  
   42.00000g    769.4959m   -586.2637m     33.0039m     27.4677m  
   42.50000g    764.9425m   -591.9891m     33.4727m     27.4691m  
   43.00000g    760.3474m   -597.6801m     33.9412m     27.4636m  
   43.50000g    755.7107m   -603.3363m     34.4091m     27.4511m  
   44.00000g    751.0328m   -608.9573m     34.8765m     27.4317m  
   44.50000g    746.3137m   -614.5429m     35.3432m     27.4054m  
   45.00000g    741.5539m   -620.0927m     35.8092m     27.3723m  
   45.50000g    736.7536m   -625.6064m     36.2742m     27.3322m  
   46.00000g    731.9129m   -631.0837m     36.7384m     27.2853m  
   46.50000g    727.0322m   -636.5242m     37.2015m     27.2316m  
   47.00000g    722.1117m   -641.9277m     37.6635m     27.1711m  
   47.50000g    717.1517m   -647.2937m     38.1243m     27.1037m  
   48.00000g    712.1525m   -652.6221m     38.5839m     27.0296m  
   48.50000g    707.1143m   -657.9125m     39.0420m     26.9486m  
   49.00000g    702.0375m   -663.1647m     39.4987m     26.8610m  
   49.50000g    696.9222m   -668.3782m     39.9538m     26.7667m  
   50.00000g    691.7688m   -673.5528m     40.4072m     26.6656m  
   50.50000g    686.5776m   -678.6883m     40.8589m     26.5579m  
   51.00000g    681.3489m   -683.7842m     41.3088m     26.4436m  
   51.50000g    676.0828m   -688.8404m     41.7567m     26.3226m  
   52.00000g    670.7799m   -693.8566m     42.2027m     26.1951m  
   52.50000g    665.4402m   -698.8324m     42.6465m     26.0611m  
   53.00000g    660.0642m   -703.7677m     43.0881m     25.9206m  
   53.50000g    654.6522m   -708.6620m     43.5275m     25.7736m  
   54.00000g    649.2044m   -713.5152m     43.9644m     25.6201m  
   54.50000g    643.7212m   -718.3270m     44.3990m     25.4603m  
   55.00000g    638.2028m   -723.0971m     44.8309m     25.2942m  
   55.50000g    632.6496m   -727.8252m     45.2603m     25.1217m  
   56.00000g    627.0619m   -732.5112m     45.6869m     24.9429m  
   56.50000g    621.4400m   -737.1546m     46.1107m     24.7580m  
   57.00000g    615.7843m   -741.7554m     46.5316m     24.5668m  
   57.50000g    610.0950m   -746.3132m     46.9496m     24.3695m  
   58.00000g    604.3725m   -750.8277m     47.3645m     24.1662m  
   58.50000g    598.6170m   -755.2988m     47.7762m     23.9568m  
   59.00000g    592.8290m   -759.7262m     48.1847m     23.7414m  
   59.50000g    587.0088m   -764.1097m     48.5899m     23.5201m  
   60.00000g    581.1566m   -768.4489m     48.9917m     23.2929m  
   60.50000g    575.2729m   -772.7438m     49.3900m     23.0599m  
   61.00000g    569.3579m   -776.9940m     49.7848m     22.8212m  
   61.50000g    563.4120m   -781.1993m     50.1759m     22.5767m  
   62.00000g    557.4355m   -785.3595m     50.5633m     22.3265m  
   62.50000g    551.4287m   -789.4744m     50.9470m     22.0708m  
   63.00000g    545.3921m   -793.5438m     51.3267m     21.8095m  
   63.50000g    539.3259m   -797.5674m     51.7025m     21.5427m  
   64.00000g    533.2305m   -801.5451m     52.0743m     21.2706m  
   64.50000g    527.1062m   -805.4765m     52.4420m     20.9930m  
   65.00000g    520.9533m   -809.3616m     52.8056m     20.7102m  
   65.50000g    514.7723m   -813.2001m     53.1649m     20.4222m  
   66.00000g    508.5635m   -816.9918m     53.5199m     20.1290m  
   66.50000g    502.3272m   -820.7365m     53.8705m     19.8307m  
   67.00000g    496.0637m   -824.4340m     54.2166m     19.5274m  
   67.50000g    489.7735m   -828.0842m     54.5583m     19.2191m  
   68.00000g    483.4568m   -831.6867m     54.8953m     18.9060m  
   68.50000g    477.1141m   -835.2416m     55.2277m     18.5880m  
   69.00000g    470.7456m   -838.7484m     55.5554m     18.2653m  
   69.50000g    464.3518m   -842.2071m     55.8783m     17.9379m  
   70.00000g    457.9330m   -845.6176m     56.1964m     17.6059m  
   70.50000g    451.4896m   -848.9795m     56.5095m     17.2694m  
   71.00000g    445.0218m   -852.2928m     56.8177m     16.9284m  
   71.50000g    438.5302m   -855.5572m     57.1209m     16.5831m  
   72.00000g    432.0149m   -858.7727m     57.4190m     16.2335m  
   72.50000g    425.4765m   -861.9389m     57.7119m     15.8796m  
   73.00000g    418.9153m   -865.0559m     57.9996m     15.5216m  
   73.50000g    412.3316m   -868.1233m     58.2821m     15.1595m  
   74.00000g    405.7258m   -871.1412m     58.5593m     14.7935m  
   74.50000g    399.0982m   -874.1092m     58.8311m     14.4235m  
   75.00000g    392.4493m   -877.0272m     59.0975m     14.0497m  
   75.50000g    385.7795m   -879.8951m     59.3584m     13.6722m  
   76.00000g    379.0889m   -882.7128m     59.6138m     13.2910m  
   76.50000g    372.3782m   -885.4801m     59.8637m     12.9062m  
   77.00000g    365.6475m   -888.1969m     60.1079m     12.5179m  
   77.50000g    358.8974m   -890.8629m     60.3465m     12.1263m  
   78.00000g    352.1281m   -893.4782m     60.5794m     11.7312m  
   78.50000g    345.3401m   -896.0425m     60.8065m     11.3329m  
   79.00000g    338.5337m   -898.5557m     61.0279m     10.9315m  
   79.50000g    331.7092m   -901.0177m     61.2434m     10.5270m  
   80.00000g    324.8672m   -903.4284m     61.4531m     10.1195m  
   80.50000g    318.0079m   -905.7876m     61.6568m      9.7091m  
   81.00000g    311.1317m   -908.0953m     61.8546m      9.2958m  
   81.50000g    304.2390m   -910.3512m     62.0464m      8.8799m  
   82.00000g    297.3302m   -912.5553m     62.2322m      8.4613m  
   82.50000g    290.4057m   -914.7075m     62.4120m      8.0401m  
   83.00000g    283.4659m   -916.8077m     62.5857m      7.6165m  
   83.50000g    276.5110m   -918.8558m     62.7532m      7.1905m  
   84.00000g    269.5416m   -920.8516m     62.9146m      6.7622m  
   84.50000g    262.5580m   -922.7950m     63.0699m      6.3317m  
   85.00000g    255.5605m   -924.6860m     63.2189m      5.8991m  
   85.50000g    248.5497m   -926.5245m     63.3617m      5.4644m  
   86.00000g    241.5257m   -928.3103m     63.4983m      5.0279m  
   86.50000g    234.4891m   -930.0434m     63.6285m      4.5895m  
   87.00000g    227.4403m   -931.7237m     63.7525m      4.1493m  
   87.50000g    220.3795m   -933.3511m     63.8701m      3.7075m  
   88.00000g    213.3073m   -934.9255m     63.9814m      3.2642m  
   88.50000g    206.2239m   -936.4469m     64.0864m      2.8193m  
   89.00000g    199.1298m   -937.9151m     64.1849m      2.3731m  
   89.50000g    192.0254m   -939.3301m     64.2771m      1.9256m  
   90.00000g    184.9110m   -940.6918m     64.3628m      1.4769m  
   90.50000g    177.7871m   -942.0002m     64.4422m      1.0271m  
   91.00000g    170.6540m   -943.2552m     64.5150m    576.2483u  
   91.50000g    163.5121m   -944.4566m     64.5815m    124.4999u  
   92.00000g    156.3618m   -945.6045m     64.6414m   -328.0766u  
   92.50000g    149.2036m   -946.6988m     64.6949m   -781.3885u  
   93.00000g    142.0378m   -947.7395m     64.7419m     -1.2353m  
   93.50000g    134.8647m   -948.7264m     64.7824m     -1.6898m  
   94.00000g    127.6848m   -949.6596m     64.8164m     -2.1448m  
   94.50000g    120.4985m   -950.5390m     64.8440m     -2.6001m  
   95.00000g    113.3062m   -951.3645m     64.8650m     -3.0557m  
   95.50000g    106.1083m   -952.1361m     64.8795m     -3.5115m  
   96.00000g     98.9051m   -952.8538m     64.8875m     -3.9674m  
   96.50000g     91.6971m   -953.5175m     64.8891m     -4.4232m  
   97.00000g     84.4846m   -954.1272m     64.8841m     -4.8790m  
   97.50000g     77.2681m   -954.6829m     64.8726m     -5.3345m  
   98.00000g     70.0479m   -955.1845m     64.8546m     -5.7898m  
   98.50000g     62.8244m   -955.6320m     64.8302m     -6.2447m  
   99.00000g     55.5981m   -956.0253m     64.7992m     -6.6991m  
   99.50000g     48.3693m   -956.3646m     64.7618m     -7.1530m  
  100.00000g     41.1384m   -956.6497m     64.7179m     -7.6062m  
y

          ***** job concluded
1****** HSPICE -- C-2009.09 32-BIT (Aug 24 2009) winnt ******                   
 ******  
 .title test_cpw

  ******  job statistics summary tnom=  25.000 temp=  27.000 *****

  ******  HSPICE Threads Information  ******

  Command Line Threads Count                  :     1
  Available CPU Count                         :     4
  Actual Model Evaluation(Load) Threads Count :     1
  Actual Solver Threads Count                 :     1


  ******  Circuit Statistics  ******
  # nodes       =      85 # elements   =     170
  # resistors   =      84 # capacitors =      44 # inductors   =      40
  # mutual_inds =       0 # vccs       =       0 # vcvs        =       0
  # cccs        =       0 # ccvs       =       0 # volt_srcs   =       0
  # curr_srcs   =       0 # diodes     =       0 # bjts        =       0
  # jfets       =       0 # mosfets    =       0 # U elements  =       0
  # T elements  =       0 # W elements =       0 # B elements  =       0
  # S elements  =       0 # P elements =       2 # va device   =       0


  ******  Runtime Statistics (seconds)  ******

  analysis           time    # points   tot. iter  conv.iter
  op point           0.05           1           3
  ac analysis        0.03         200         200
  readin             0.05
  errchk             0.01
  setup              0.01
  output             0.00


           total memory used          376  kbytes
           total cpu time            0.13 seconds
           total elapsed time        0.16 seconds
           job started at     21:40:43 02/14/2017
           job ended   at     21:40:44 02/14/2017


  lic: Release hspice token(s) 
